geometry optimzed in LAMMPS
_audit_creation_date              2020-11-30 
_audit_creation_method            'lammps2cif' 
_symmetry_space_group_name_H-M    'P1' 
_symmetry_Int_Tables_number       1 
_symmetry_cell_setting            triclinic 
loop_ 
_symmetry_equiv_pos_as_xyz 
  x,y,z 
_cell_length_a                    28.51794815 
_cell_length_b                    29.291701338300143 
_cell_length_c                    34.63778922928092 
_cell_angle_alpha                 93.59451476100038 
_cell_angle_beta                  93.2442653214321 
_cell_angle_gamma                 91.12467557550487 
loop_ 
_atom_site_label 
_atom_site_type_symbol 
_atom_site_fract_x 
_atom_site_fract_y 
_atom_site_fract_z 
_atom_site_charge 
C1          C  0.85067234  0.34976594  0.45462791     0.30900
C2          C  0.84588534  0.35517929  0.03407050     0.30900
C3          C  0.86699098  0.30593842  0.47296605    -0.05300
C4          C  0.88099937  0.38734311  0.47811637    -0.06100
C5          C  0.80182128  0.35739058  0.47112963    -0.06000
C6          C  0.86115050  0.31109639  0.01242215    -0.05300
C7          C  0.87777766  0.39232311  0.01835342    -0.06100
C8          C  0.79774656  0.36407639  0.01307814    -0.06000
C9          C  0.87816379  0.26922769  0.02222950    -0.31400
N10         N  0.89853858  0.24097534  0.49118567     0.15100
C11         C  0.88784090  0.26606158  0.46027532    -0.31400
H12         H  0.89659616  0.25689783  0.43082444     0.17100
C13         C  0.90780208  0.42746898  0.03349394    -0.30400
N14         N  0.92668721  0.44859230  0.00385079     0.13900
C15         C  0.91186272  0.42238654  0.47063855    -0.30300
C16         C  0.75904354  0.38872409  0.02409175    -0.30600
N17         N  0.73577818  0.40307894  0.99203490     0.14400
H18         H  0.75133940  0.39987555  0.05338472     0.17000
C19         C  0.76494559  0.38406684  0.45874699    -0.30600
H20         H  0.75977376  0.39701538  0.43026207     0.17000
H21         H  0.92120669  0.43179696  0.44232836     0.17000
H22         H  0.88483936  0.25843438  0.05130477     0.17100
H23         H  0.91588933  0.43657540  0.06390161     0.17000
C24         C  0.85009410  0.35161333  0.20453393     0.30900
C25         C  0.85079606  0.35093878  0.28380079     0.30900
C26         C  0.86550529  0.30725090  0.22214244    -0.05300
C27         C  0.88224872  0.38797029  0.22733769    -0.06100
C28         C  0.80257524  0.36064060  0.22242695    -0.06000
C29         C  0.86566984  0.30666152  0.26222352    -0.05300
C30         C  0.88279998  0.38770234  0.26762040    -0.06100
C31         C  0.80257969  0.36010330  0.26301475    -0.06000
C32         C  0.88296413  0.26495131  0.27211101    -0.31400
N33         N  0.89349700  0.24069999  0.23903957     0.15100
C34         C  0.88330959  0.26644010  0.20852803    -0.31400
H35         H  0.89010002  0.25680903  0.17870764     0.17100
C36         C  0.91301602  0.42288715  0.28221814    -0.30400
N37         N  0.93102965  0.44406235  0.25218584     0.13900
C38         C  0.91175363  0.42326829  0.21862986    -0.30300
C39         C  0.76495286  0.38630248  0.27413385    -0.30600
N40         N  0.74199005  0.40115440  0.24214773     0.14400
H41         H  0.75787422  0.39797195  0.30344859     0.17000
C42         C  0.76602597  0.38797778  0.21105824    -0.30600
H43         H  0.75963033  0.40070537  0.18261163     0.17000
H44         H  0.91813003  0.43360375  0.18993585     0.17000
H45         H  0.88994846  0.25427897  0.30119245     0.17100
H46         H  0.92164975  0.43207918  0.31252686     0.17000
C47         C  0.66921947  0.85548394  0.05691382     0.30900
C48         C  0.67370731  0.86123984  0.47745443     0.30900
C49         C  0.64842749  0.81441181  0.03179066    -0.05300
C50         C  0.64317932  0.89565859  0.03958505    -0.06100
C51         C  0.71851558  0.86221649  0.04156871    -0.06000
C52         C  0.64992043  0.81931696  0.49249552    -0.05300
C53         C  0.64444761  0.89829999  0.99946943    -0.06100
C54         C  0.72004395  0.86547718  0.00108498    -0.06000
C55         C  0.62840472  0.78017804  0.47581507    -0.31400
N56         N  0.61488708  0.75180141  0.00220016     0.15100
C57         C  0.62586501  0.77355438  0.03751905    -0.31400
H58         H  0.61896678  0.76024865  0.06514387     0.17100
C59         C  0.62738220  0.94006826  0.48956160    -0.30400
N60         N  0.60216932  0.95523567  0.02246734     0.13900
C61         C  0.61720984  0.93159294  0.05308524    -0.30300
C62         C  0.76240053  0.88916894  0.49230288    -0.30600
N63         N  0.78006727  0.90664783  0.03059661     0.14400
H64         H  0.77177234  0.90122012  0.46479619     0.17000
C65         C  0.75586229  0.88846165  0.05834255    -0.30600
H66         H  0.76284000  0.89724696  0.08896932     0.17000
H67         H  0.60938060  0.93998305  0.08284650     0.17000
H68         H  0.62416163  0.77046841  0.44511191     0.17100
H69         H  0.62033645  0.95107758  0.46062383     0.17000
C70         C  0.66839111  0.85723507  0.30652359     0.30900
C71         C  0.67099325  0.85876263  0.22748046     0.30900
C72         C  0.64660906  0.81563573  0.28284044    -0.05300
C73         C  0.64337728  0.89724356  0.28782620    -0.06100
C74         C  0.71760725  0.86163947  0.29071493    -0.06000
C75         C  0.64833029  0.81660067  0.24294334    -0.05300
C76         C  0.64471195  0.89785788  0.24754753    -0.06100
C77         C  0.71927135  0.86287895  0.25007606    -0.06000
C78         C  0.62828839  0.77669373  0.22663296    -0.31400
N79         N  0.61381806  0.75168856  0.25541399     0.15100
C80         C  0.62482266  0.77492012  0.29007762    -0.31400
H81         H  0.61899399  0.76251375  0.31823394     0.17100
C82         C  0.61904962  0.93427212  0.23613500    -0.30400
N83         N  0.60141789  0.95511254  0.26802163     0.13900
C84         C  0.61684280  0.93351250  0.29973051    -0.30300
C85         C  0.75845029  0.88981718  0.24396148    -0.30600
N86         N  0.78093824  0.90243710  0.27855864     0.14400
H87         H  0.76843431  0.90130309  0.21643358     0.17000
C88         C  0.75585195  0.88678561  0.30680909    -0.30600
H89         H  0.76306658  0.89660086  0.33724196     0.17000
H90         H  0.60799687  0.94298297  0.32905024     0.17000
H91         H  0.62505034  0.76612600  0.19605758     0.17100
H92         H  0.61142893  0.94350368  0.20672241     0.17000
O93         O  0.12224641  0.08919588  0.50218671    -0.80000
O94         O  0.90615168  0.01197534  0.00800224    -0.64700
O95         O  0.03004161  0.06451895  0.02707920    -1.11300
C96         C  0.08057992  0.91380119  0.01933499     1.06900
O97         O  0.91903937  0.94510658  0.03409470    -0.77900
O98         O  0.99297837  0.97428862  0.08166438    -0.65500
Ni99       Ni  0.05724853  0.10580892  0.49957789     1.34900
C100        C  0.03113583  0.99570986  0.09202396     0.85600
O101        O  0.93927077  0.09712168  0.02885826    -0.78500
O102        O  0.99511254  0.13158558  0.49448322    -0.88700
C103        C  0.89177309  0.97404624  0.01946003     0.85200
O104        O  0.04614751  0.06604169  0.45477567    -0.66900
O105        O  0.04846638  0.91301784  0.04326453    -0.86200
C106        C  0.00834018  0.04380504  0.44476479     0.86000
C107        C  0.95806665  0.12814215  0.51314410     1.07600
H108        H  0.00399540  0.96300286  0.48857754     0.39400
O109        O  0.99871887  0.98245190  0.00580947    -1.08900
O110        O  0.06485278  0.99853086  0.06967173    -0.65500
Ni111      Ni  0.06080116  0.00757062  0.01468174     1.26300
O112        O  0.97521099  0.03907750  0.46725712    -0.65800
O113        O  0.08847475  0.94945035  0.00142073    -0.78100
C114        C  0.13779318  0.07221669  0.01424334     0.85400
O115        O  0.12244897  0.03365951  0.02323254    -0.65200
Ni116      Ni  0.98470434  0.93339596  0.03747776     1.27400
Ni117      Ni  0.96778378  0.03921920  0.01726309     1.26100
H118        H  0.03508219  0.07460084  0.05411102     0.39900
O119        O  0.11161613  0.09933713  0.25376025    -0.80000
O120        O  0.90868019  0.00569024  0.25756437    -0.64700
O121        O  0.03114369  0.05980188  0.27832412    -1.11300
C122        C  0.08385829  0.90979161  0.27542369     1.06900
O123        O  0.92105186  0.94038592  0.28620512    -0.77900
O124        O  0.99429249  0.97185664  0.33471582    -0.65500
Ni125      Ni  0.04580722  0.10889217  0.24678251     1.34900
C126        C  0.03245818  0.99351725  0.34484043     0.85600
O127        O  0.93996387  0.09131866  0.27815282    -0.78500
O128        O  0.98195695  0.12759495  0.23743725    -0.88700
C129        C  0.89418293  0.96814317  0.26943823     0.85200
O130        O  0.04118052  0.06691484  0.20296103    -0.66900
O131        O  0.05081495  0.90911337  0.29855547    -0.86200
C132        C  0.00381831  0.04448485  0.19172572     0.86000
C133        C  0.94768230  0.12614822  0.25918656     1.07600
H134        H  0.99676112  0.96524604  0.23177793     0.39400
O135        O  0.00146293  0.97694506  0.25843960    -1.08900
O136        O  0.06636298  0.99560773  0.32266761    -0.65500
Ni137      Ni  0.06312320  0.00305143  0.26761410     1.26300
O138        O  0.96902266  0.04097601  0.21291774    -0.65800
O139        O  0.09176585  0.94486824  0.25667042    -0.78100
C140        C  0.13876918  0.06945523  0.26699733     0.85400
O141        O  0.12451051  0.03047503  0.27613023    -0.65200
Ni142      Ni  0.98694299  0.92923096  0.29132369     1.27400
Ni143      Ni  0.96954847  0.03357966  0.26797115     1.26100
H144        H  0.03540507  0.07070830  0.30519823     0.39900
C145        C  0.15926710  0.67109161  0.48819109     0.30900
C146        C  0.15436534  0.67823302  0.06833271     0.30900
C147        C  0.14507953  0.72504089  0.01061219    -0.05300
C148        C  0.12110299  0.64516900  0.00449901    -0.06100
C149        C  0.20318098  0.66618435  0.01104551    -0.06000
C150        C  0.14461100  0.72453786  0.05084608    -0.05300
C151        C  0.11984093  0.64527551  0.04455180    -0.06100
C152        C  0.20178343  0.66655730  0.05133354    -0.06000
C153        C  0.13573926  0.76845985  0.06452463    -0.31400
N154        N  0.12844599  0.79508018  0.03428469     0.15100
C155        C  0.13434792  0.76912480  0.00094201    -0.31400
H156        H  0.14079642  0.76888956  0.46264303     0.17100
C157        C  0.08691505  0.61273319  0.05276648    -0.30400
N158        N  0.06810367  0.59219743  0.01890447     0.13900
C159        C  0.09249613  0.60436671  0.49202074    -0.30300
C160        C  0.24429183  0.65112841  0.06549618    -0.30600
N161        N  0.27090785  0.63966591  0.03544881     0.14400
H162        H  0.25475326  0.64619289  0.09540301     0.17000
C163        C  0.24627564  0.64823236  0.00198305    -0.30600
H164        H  0.25905601  0.62993660  0.47359468     0.17000
H165        H  0.08630171  0.59210385  0.46205501     0.17000
H166        H  0.13415270  0.78089893  0.09444012     0.17100
H167        H  0.07825473  0.60401891  0.08145030     0.17000
C168        C  0.15865661  0.67644108  0.23865750     0.30900
C169        C  0.15900541  0.67241874  0.31769651     0.30900
C170        C  0.14877571  0.72205019  0.26199650    -0.05300
C171        C  0.12319489  0.64248242  0.25385300    -0.06100
C172        C  0.20586551  0.66260001  0.25894491    -0.06000
C173        C  0.14856296  0.71909939  0.30200307    -0.05300
C174        C  0.12359199  0.64017980  0.29379951    -0.06100
C175        C  0.20524114  0.66002355  0.29908804    -0.06000
C176        C  0.13716475  0.76116491  0.31813057    -0.31400
N177        N  0.13118922  0.79046641  0.28957014     0.15100
C178        C  0.13891989  0.76735972  0.25520490    -0.31400
H179        H  0.13599883  0.78227046  0.22744797     0.17100
C180        C  0.09234561  0.60559297  0.30095389    -0.30400
N181        N  0.07190698  0.58771598  0.26673179     0.13900
C182        C  0.09096052  0.60985952  0.23771159    -0.30300
C183        C  0.24564719  0.63890765  0.31111801    -0.30600
N184        N  0.27232010  0.63089355  0.28046174     0.14400
H185        H  0.25377511  0.62703855  0.33964177     0.17000
C186        C  0.24870756  0.64520893  0.24832172    -0.30600
H187        H  0.26033747  0.63985771  0.21924489     0.17000
H188        H  0.08213728  0.60291318  0.20708701     0.17000
H189        H  0.13195914  0.76949921  0.34846263     0.17100
H190        H  0.08601564  0.59320862  0.32899003     0.17000
C191        C  0.37073195  0.16742421  0.05590016     0.30900
C192        C  0.37941171  0.16822915  0.47668283     0.30900
C193        C  0.37839805  0.21463748  0.03988598    -0.05300
C194        C  0.40941809  0.13951922  0.03774727    -0.06100
C195        C  0.32650618  0.14926915  0.03145491    -0.06000
C196        C  0.38238937  0.21530101  0.49870441    -0.05300
C197        C  0.41901575  0.14257498  0.49772620    -0.06100
C198        C  0.33549172  0.14581738  0.49228035    -0.06000
C199        C  0.39557958  0.25868717  0.48975407    -0.31400
N200        N  0.39865762  0.28479369  0.02590021     0.15100
C201        C  0.38761452  0.25861802  0.05506657    -0.31400
H202        H  0.38810497  0.27074022  0.08524029     0.17100
C203        C  0.45543543  0.11450577  0.48809184    -0.30400
N204        N  0.46413073  0.09153498  0.02044326     0.13900
C205        C  0.44199298  0.10975424  0.05117010    -0.30300
C206        C  0.29427033  0.12539685  0.47646784    -0.30600
N207        N  0.25844179  0.12344571  0.00306241     0.14400
H208        H  0.28386379  0.11951820  0.44601951     0.17000
C209        C  0.28176166  0.13369077  0.03786758    -0.30600
H210        H  0.26606964  0.13227375  0.06546762     0.17000
H211        H  0.44859200  0.10143955  0.08097252     0.17000
H212        H  0.40326842  0.26935686  0.46138778     0.17100
H213        H  0.46420043  0.10286383  0.45922062     0.17000
C214        C  0.37174988  0.16696219  0.30595321     0.30900
C215        C  0.37221370  0.16885594  0.22655571     0.30900
C216        C  0.38503008  0.21280114  0.29017918    -0.05300
C217        C  0.40500354  0.13406542  0.28560841    -0.06100
C218        C  0.32481246  0.15397486  0.28329338    -0.06000
C219        C  0.38545052  0.21417016  0.24996811    -0.05300
C220        C  0.40546761  0.13538481  0.24548612    -0.06100
C221        C  0.32479475  0.15649436  0.24305874    -0.06000
C222        C  0.39926905  0.25803648  0.24275188    -0.31400
N223        N  0.40801594  0.28218638  0.27723732     0.15100
C224        C  0.39868785  0.25524042  0.30629859    -0.31400
H225        H  0.40242366  0.26563666  0.33688985     0.17100
C226        C  0.43778658  0.10457085  0.23293763    -0.30400
N227        N  0.45626732  0.08417561  0.26425971     0.13900
C228        C  0.43606300  0.10144031  0.29637812    -0.30300
C229        C  0.28043729  0.14383386  0.22814515    -0.30600
N230        N  0.25506963  0.13018549  0.25729265     0.14400
H231        H  0.26728594  0.14363328  0.19822559     0.17000
C232        C  0.28157873  0.13579481  0.29110388    -0.30600
H233        H  0.27007925  0.12705032  0.31898876     0.17000
H234        H  0.44405810  0.09126055  0.32545496     0.17000
H235        H  0.40194757  0.27199557  0.21478544     0.17100
H236        H  0.44698693  0.09734226  0.20332135     0.17000
O237        O  0.63081638  0.49576228  0.49232947    -0.80000
O238        O  0.42810598  0.59552602  0.00840943    -0.64700
O239        O  0.54489772  0.53483445  0.02297997    -1.11300
C240        C  0.45517810  0.40070033  0.01430815     1.06900
O241        O  0.38131227  0.54587292  0.03502996    -0.77900
O242        O  0.45038014  0.50818530  0.07986533    -0.65500
Ni243      Ni  0.59954351  0.55363492  0.49205554     1.34900
C244        C  0.49067598  0.49257292  0.08836803     0.85600
O245        O  0.51630699  0.62405559  0.02889799    -0.78500
O246        O  0.57735208  0.61532379  0.49004501    -0.88700
C247        C  0.38865719  0.58408286  0.02054860     0.85200
O248        O  0.56207039  0.53363764  0.44701126    -0.66900
O249        O  0.43281081  0.42562082  0.03809893    -0.86200
C250        C  0.52175331  0.54891947  0.43796401     0.86000
C251        C  0.55555081  0.63948830  0.51471586     1.07600
H252        H  0.45354504  0.50305655  0.47477651     0.39400
O253        O  0.45973953  0.50577877  0.00312893    -1.08900
O254        O  0.51294241  0.46790297  0.06435032    -0.65500
Ni255      Ni  0.51795729  0.47488025  0.00957681     1.26300
O256        O  0.49875786  0.57336668  0.46173209    -0.65800
O257        O  0.48836935  0.41672500  0.99598726    -0.78100
C258        C  0.61736198  0.45769518  0.00577629     0.85400
O259        O  0.57701457  0.44471986  0.01530006    -0.65200
Ni260      Ni  0.41157690  0.48763505  0.03563393     1.27400
Ni261      Ni  0.48679471  0.56563504  0.01563664     1.26100
H262        H  0.55642375  0.53854357  0.04975621     0.39900
O263        O  0.63079481  0.49507223  0.24223502    -0.80000
O264        O  0.43342094  0.59273251  0.26152202    -0.64700
O265        O  0.55098530  0.53235767  0.27388706    -1.11300
C266        C  0.46380949  0.39761168  0.26402286     1.06900
O267        O  0.38454388  0.53885706  0.27980287    -0.77900
O268        O  0.45464458  0.50635748  0.32779142    -0.65500
Ni269      Ni  0.59896306  0.55238413  0.24214655     1.34900
C270        C  0.49513977  0.49175521  0.33738752     0.85600
O271        O  0.52132839  0.62062101  0.28360593    -0.78500
O272        O  0.57582735  0.61358891  0.24058350    -0.88700
C273        C  0.39266835  0.57885799  0.26909793     0.85200
O274        O  0.56070600  0.53171550  0.19759483    -0.66900
O275        O  0.44205197  0.42235681  0.28822493    -0.86200
C276        C  0.52037244  0.54729912  0.18915466     0.86000
C277        C  0.55442372  0.63743234  0.26573088     1.07600
H278        H  0.45536119  0.49995894  0.22529414     0.39400
O279        O  0.46644592  0.50291470  0.25222316    -1.08900
O280        O  0.51815880  0.46625293  0.31440879    -0.65500
Ni281      Ni  0.52488916  0.47261259  0.25966432     1.26300
O282        O  0.49831169  0.57193746  0.21330862    -0.65800
O283        O  0.49632387  0.41408092  0.24528377    -0.78100
C284        C  0.62378450  0.45618104  0.25557275     0.85400
O285        O  0.58412890  0.44344431  0.26666753    -0.65200
Ni286      Ni  0.41777929  0.48272305  0.28330823     1.27400
Ni287      Ni  0.49246063  0.56276427  0.26762735     1.26100
H288        H  0.56284167  0.53553229  0.30059931     0.39900
C289        C  0.51676195  0.50412172  0.37599402    -0.15600
C290        C  0.50027569  0.53781427  0.39904251    -0.30700
H291        H  0.54790181  0.48591842  0.38516834     0.13500
H292        H  0.46911042  0.55601719  0.38995285     0.14000
C293        C  0.51309637  0.50314845  0.12693939    -0.15600
C294        C  0.49770883  0.53667327  0.15067809    -0.30700
H295        H  0.54409334  0.48426971  0.13531525     0.13500
H296        H  0.46668031  0.55554320  0.14235735     0.14000
C297        C  0.45151718  0.34858489  0.25876890    -0.15600
C298        C  0.42315677  0.32906035  0.28300428    -0.30700
H299        H  0.46514061  0.32848067  0.23465288     0.13500
H300        H  0.41223002  0.34852225  0.30857871     0.14000
C301        C  0.33711288  0.18194609  0.41170938    -0.12500
C302        C  0.37868802  0.17068070  0.43259363     0.09700
C303        C  0.41964035  0.16682535  0.41202066    -0.12500
C304        C  0.41730393  0.16628775  0.37151295    -0.12500
C305        C  0.37388157  0.16867134  0.35027849     0.09700
C306        C  0.33453338  0.18034914  0.37117260    -0.12500
H307        H  0.30628011  0.19184312  0.42671301     0.13700
H308        H  0.45377494  0.16576781  0.42698202     0.13700
H309        H  0.44976881  0.16448677  0.35686883     0.13700
H310        H  0.30197172  0.18943090  0.35643745     0.13700
C311        C  0.40589510  0.19263443  0.12346377    -0.12500
C312        C  0.37222225  0.16605523  0.10010631     0.09700
C313        C  0.34602795  0.13346568  0.11844538    -0.12500
C314        C  0.34726259  0.13353297  0.15889153    -0.12500
C315        C  0.37367556  0.16694122  0.18231459     0.09700
C316        C  0.40638760  0.19335606  0.16393119    -0.12500
H317        H  0.43234971  0.21266007  0.11050254     0.13700
H318        H  0.32601714  0.10662347  0.10183884     0.13700
H319        H  0.32810977  0.10668291  0.17166136     0.13700
H320        H  0.43331136  0.21366787  0.18058141     0.13700
C321        C  0.41263100  0.33207776  0.03153368    -0.15600
C322        C  0.44277359  0.35162207  0.00873507    -0.30700
H323        H  0.39969076  0.35177130  0.05620753     0.13500
H324        H  0.45823342  0.33138036  0.98559470     0.14000
C325        C  0.31196572  0.60129630  0.28184008    -0.15600
C326        C  0.35246639  0.61017649  0.26525805    -0.30700
H327        H  0.30986537  0.57223833  0.29975657     0.13500
H328        H  0.35632336  0.64102824  0.24978454     0.14000
C329        C  0.19996737  0.68337093  0.42571178    -0.12500
C330        C  0.15935972  0.67051453  0.44398508     0.09700
C331        C  0.11703451  0.66580927  0.42093004    -0.12500
C332        C  0.11681540  0.66667344  0.38054540    -0.12500
C333        C  0.15890544  0.67237629  0.36189832     0.09700
C334        C  0.19971508  0.68439447  0.38538641    -0.12500
H335        H  0.23179662  0.69405311  0.44252511     0.13700
H336        H  0.08374350  0.66255332  0.43406810     0.13700
H337        H  0.08342898  0.66378583  0.36407191     0.13700
H338        H  0.23145122  0.69559075  0.37278302     0.13700
C339        C  0.17390259  0.64005046  0.13157919    -0.12500
C340        C  0.15181956  0.67538150  0.11223191     0.09700
C341        C  0.12302383  0.70419637  0.13405644    -0.12500
C342        C  0.12502820  0.70449118  0.17450825    -0.12500
C343        C  0.15561603  0.67570530  0.19437792     0.09700
C344        C  0.17606710  0.64038262  0.17208339    -0.12500
H345        H  0.18940316  0.61194587  0.11548456     0.13700
H346        H  0.09748812  0.72532548  0.12008778     0.13700
H347        H  0.10106360  0.72600222  0.18985413     0.06100
H348        H  0.19304238  0.61245644  0.18579746     0.13700
C349        C  0.31209367  0.61236525  0.03946970    -0.15600
C350        C  0.34895002  0.61585756  0.01717896    -0.30700
H351        H  0.31348438  0.58854637  0.06233562     0.13500
H352        H  0.34968644  0.64195150  0.99627500     0.14000
C353        C  0.20700895  0.11511042  0.25211580    -0.15600
C354        C  0.18913971  0.08169560  0.27214031    -0.30700
H355        H  0.18514396  0.13029580  0.22981896     0.13500
H356        H  0.21159160  0.06352791  0.29207495     0.14000
C357        C  0.11306487  0.86843913  0.27068307    -0.15600
C358        C  0.11094214  0.83496792  0.29568912    -0.30700
H359        H  0.13422446  0.86438686  0.24567194     0.13500
H360        H  0.09171527  0.84100603  0.32168127     0.14000
C361        C  0.18856637  0.08221144  0.01946867    -0.15600
C362        C  0.20974514  0.11063603  0.99668489    -0.30700
H363        H  0.21984454  0.05771169  0.54781217     0.13500
H364        H  0.19008426  0.12364590  0.97205548     0.14000
C365        C  0.10891879  0.87206710  0.01326201    -0.15600
C366        C  0.10855969  0.83980115  0.03934452    -0.30700
H367        H  0.12798463  0.86696766  0.98714698     0.13500
H368        H  0.09152567  0.84740024  0.06624620     0.14000
C369        C  0.00213643  0.02188984  0.40585752    -0.15600
C370        C  0.03834629  0.01698670  0.38320433    -0.30700
H371        H  0.96766115  0.00744701  0.39645169     0.13500
H372        H  0.07288499  0.03125751  0.39264173     0.14000
C373        C  0.03656325  0.01822400  0.13083648    -0.15600
C374        C  0.99970667  0.02194721  0.15301281    -0.30700
H375        H  0.07064172  0.03320741  0.14075089     0.13500
H376        H  0.96566458  0.00696663  0.14297012     0.14000
C377        C  0.56542749  0.02250763  0.24051754    -0.12500
C378        C  0.56555745  0.98856840  0.26737624     0.09700
C379        C  0.52858206  0.98576303  0.29220557    -0.12500
C380        C  0.49233901  0.01668655  0.29062011    -0.12500
C381        C  0.49241161  0.05101894  0.26420718     0.09700
C382        C  0.52905470  0.05362212  0.23896923    -0.12500
H383        H  0.59364284  0.02512161  0.22107985     0.13700
H384        H  0.52719637  0.95899203  0.31230259     0.13700
H385        H  0.46395584  0.01355118  0.30981965     0.13700
H386        H  0.52999587  0.08022985  0.21868663     0.13700
C387        C  0.59580577  0.70587954  0.24867084    -0.15600
C388        C  0.56788355  0.68603530  0.27292581    -0.30700
H389        H  0.60500861  0.68707976  0.22219543     0.13500
H390        H  0.55588440  0.70518809  0.29821727     0.14000
C391        C  0.82591819  0.92463258  0.28620124    -0.15600
C392        C  0.84421911  0.95447727  0.26305260    -0.30700
H393        H  0.84631716  0.91570829  0.31203645     0.13500
H394        H  0.82342582  0.96680768  0.23878454     0.14000
C395        C  0.49896787  0.02443269  0.04898769    -0.12500
C396        C  0.50010639  0.05824636  0.02210684     0.09700
C397        C  0.53653077  0.05899406  0.99657433    -0.12500
C398        C  0.57087957  0.02587668  0.99740183    -0.12500
C399        C  0.56922819  0.99148312  0.02372661     0.09700
C400        C  0.53324583  0.99126910  0.04976920    -0.12500
H401        H  0.47082971  0.02290223  0.06860349     0.13700
H402        H  0.53840664  0.08529397  0.97607439     0.13700
H403        H  0.59863015  0.02696178  0.97739411     0.13700
H404        H  0.53071088  0.96456547  0.06982818     0.13700
C405        C  0.70912047  0.84181191  0.41261591    -0.12500
C406        C  0.67175573  0.85966173  0.43313872     0.09700
C407        C  0.62993550  0.86900294  0.41167595    -0.12500
C408        C  0.62792365  0.86649685  0.37098328    -0.12500
C409        C  0.66769875  0.85462009  0.35065011     0.09700
C410        C  0.70685282  0.83876663  0.37214827    -0.12500
H411        H  0.74003860  0.82931863  0.42772327     0.13700
H412        H  0.59864015  0.87811320  0.42636626     0.13700
H413        H  0.59525040  0.87395734  0.35553052     0.13700
H414        H  0.73624824  0.82411444  0.35776618     0.13700
C415        C  0.62683641  0.86037097  0.12042562    -0.12500
C416        C  0.66780486  0.85121083  0.10080720     0.09700
C417        C  0.70748701  0.83742599  0.12286958    -0.12500
C418        C  0.70878046  0.84036371  0.16335880    -0.12500
C419        C  0.66994118  0.85600387  0.18317631     0.09700
C420        C  0.62786538  0.86259591  0.16104677    -0.12500
H421        H  0.59411294  0.86646964  0.10442996     0.13700
H422        H  0.73804714  0.82469268  0.10894168     0.13700
H423        H  0.74016426  0.82972794  0.17901621     0.13700
H424        H  0.59566514  0.86963869  0.17515677     0.13700
C425        C  0.59528524  0.70657575  0.99426362    -0.15600
C426        C  0.56464307  0.68794516  0.01711700    -0.30700
H427        H  0.60559366  0.68730126  0.96837499     0.13500
H428        H  0.55936823  0.70638579  0.54861508     0.14000
C429        C  0.82420636  0.93064279  0.03834158    -0.15600
C430        C  0.84148046  0.96089857  0.01487064    -0.30700
H431        H  0.84548984  0.92177242  0.06373502     0.13500
H432        H  0.81986226  0.97309572  0.99102347     0.14000
C433        C  0.03045728  0.52269017  0.22867141    -0.12500
C434        C  0.03593062  0.55188711  0.26251189     0.09700
C435        C  0.00547517  0.54553819  0.29241064    -0.12500
C436        C  0.97091189  0.51072228  0.28884290    -0.12500
C437        C  0.96575780  0.48108706  0.25527943     0.09700
C438        C  0.99588458  0.48772434  0.22512146    -0.12500
H439        H  0.05351964  0.52621204  0.20523236     0.13700
H440        H  0.00789247  0.56793873  0.31852308     0.13700
H441        H  0.94791514  0.50737386  0.31233293     0.13700
H442        H  0.99354890  0.46525638  0.19905140     0.13700
C443        C  0.91637200  0.16598109  0.26152864    -0.15600
C444        C  0.91881989  0.19873121  0.23595410    -0.30700
H445        H  0.89241940  0.16921028  0.28476866     0.13500
H446        H  0.94079611  0.19359509  0.21148066     0.14000
C447        C  0.70402764  0.43265768  0.24108840    -0.15600
C448        C  0.66383036  0.42476191  0.25845811    -0.30700
H449        H  0.70667243  0.46134929  0.22283950     0.13500
H450        H  0.66009870  0.39415299  0.27427989     0.14000
C451        C  0.99367047  0.49050057  0.97838454    -0.12500
C452        C  0.96192492  0.48521015  0.00754981     0.09700
C453        C  0.96587508  0.51585206  0.04058538    -0.12500
C454        C  0.00048702  0.55080322  0.04427773    -0.12500
C455        C  0.03226579  0.55608070  0.01508540     0.09700
C456        C  0.02829010  0.52536763  0.98209209    -0.12500
H457        H  0.99243071  0.46707698  0.95290995     0.13700
H458        H  0.94178029  0.51326462  0.06341813     0.13700
H459        H  0.00184901  0.57410857  0.06982611     0.13700
H460        H  0.05248985  0.52765315  0.95931829     0.13700
C461        C  0.89397086  0.35367595  0.39171021    -0.12500
C462        C  0.85182780  0.34733523  0.41021875     0.09700
C463        C  0.81121890  0.33491065  0.38652394    -0.12500
C464        C  0.81114896  0.33551731  0.34620996    -0.12500
C465        C  0.85177036  0.34822983  0.32793100     0.09700
C466        C  0.89396395  0.35398144  0.35112236    -0.12500
H467        H  0.92696843  0.35857715  0.40858901     0.13700
H468        H  0.77918517  0.32421670  0.39895535     0.13700
H469        H  0.77909065  0.32543512  0.32941938     0.13700
H470        H  0.92702443  0.35889884  0.33794635     0.13700
C471        C  0.89132304  0.35611916  0.14097280    -0.12500
C472        C  0.84974114  0.34976527  0.16017689     0.09700
C473        C  0.80837755  0.33813582  0.13721429    -0.12500
C474        C  0.80716107  0.33953753  0.09690449    -0.12500
C475        C  0.84737399  0.35221991  0.07808483     0.09700
C476        C  0.89016382  0.35722698  0.10050719    -0.12500
H477        H  0.92482758  0.36031521  0.15720003     0.13700
H478        H  0.77669572  0.32756709  0.15025243     0.13700
H479        H  0.77468053  0.32991105  0.08056453     0.13700
H480        H  0.92288627  0.36201365  0.08678642     0.13700
C481        C  0.92529725  0.16732998  0.51448984    -0.15600
C482        C  0.92703948  0.20061605  0.48921732    -0.30700
H483        H  0.89229765  0.17529136  0.03703451     0.13500
H484        H  0.95052181  0.19682191  0.46563980     0.14000
C485        C  0.65717304  0.42593545  0.00846493    -0.15600
C486        C  0.69733750  0.43405586  0.99102894    -0.30700
H487        H  0.65737769  0.39346777  0.52277756     0.13500
H488        H  0.69983005  0.46296467  0.97299700     0.14000
C489        C  0.84601847  0.35643106  0.95490827     0.30900
C490        C  0.84812082  0.34953364  0.53373816     0.30900
C491        C  0.86129445  0.31191995  0.97240320    -0.05300
C492        C  0.87787100  0.39278078  0.97815754    -0.06100
C493        C  0.79811775  0.36498278  0.97252595    -0.06000
C494        C  0.86565710  0.30557926  0.51295939    -0.05300
C495        C  0.87933929  0.38741890  0.51826229    -0.06100
C496        C  0.80011548  0.35683016  0.51164883    -0.06000
C497        C  0.88511651  0.26484703  0.52362916    -0.31400
N498        N  0.88882636  0.24502824  0.98915154     0.15100
C499        C  0.87877197  0.27095565  0.95871141    -0.31400
H500        H  0.88554817  0.26139487  0.92887665     0.17100
C501        C  0.90863147  0.42288342  0.53396250    -0.30400
N502        N  0.92903443  0.44360052  0.50486403     0.13900
C503        C  0.90800770  0.42790919  0.96999783    -0.30300
C504        C  0.76117235  0.38213771  0.52149565    -0.30600
N505        N  0.73905893  0.39670599  0.48896851     0.14400
H506        H  0.75283982  0.39393488  0.55047311     0.17000
C507        C  0.76061429  0.39110897  0.96104512    -0.30600
H508        H  0.75401472  0.40396254  0.93267051     0.17000
H509        H  0.91539232  0.43807947  0.94144894     0.17000
H510        H  0.89177776  0.25486336  0.55295585     0.17100
H511        H  0.91566518  0.43218785  0.56446352     0.17000
C512        C  0.84997162  0.35559205  0.70503064     0.30900
C513        C  0.84826557  0.35738819  0.78437565     0.30900
C514        C  0.86239625  0.31097945  0.72392582    -0.05300
C515        C  0.88351514  0.39113215  0.72778587    -0.06100
C516        C  0.80253092  0.36757195  0.72205872    -0.06000
C517        C  0.86137840  0.31171036  0.76401843    -0.05300
C518        C  0.88260911  0.39216546  0.76808804    -0.06100
C519        C  0.80133386  0.36814476  0.76248594    -0.06000
C520        C  0.87708056  0.26985805  0.77527073    -0.31400
N521        N  0.88801985  0.24417510  0.74304476     0.15100
C522        C  0.87934124  0.26915688  0.71173072    -0.31400
H523        H  0.88740676  0.25862544  0.68237069     0.17100
C524        C  0.91227633  0.42791611  0.78270744    -0.30400
N525        N  0.93170259  0.44814273  0.75278651     0.13900
C526        C  0.91374936  0.42612520  0.71918413    -0.30300
C527        C  0.76235143  0.39293479  0.77238535    -0.30600
N528        N  0.73982779  0.40629579  0.73960217     0.14400
H529        H  0.75361303  0.40445505  0.80133565     0.17000
C530        C  0.76524074  0.39312905  0.70920806    -0.30600
H531        H  0.75878713  0.40420229  0.68019142     0.17000
H532        H  0.92099856  0.43581825  0.69046897     0.17000
H533        H  0.88340058  0.26030855  0.80476348     0.17100
H534        H  0.91906919  0.43851277  0.81300087     0.17000
C535        C  0.67362825  0.85748869  0.55649098     0.30900
C536        C  0.67198444  0.86092129  0.97816643     0.30900
C537        C  0.64943482  0.81726917  0.53238722    -0.05300
C538        C  0.64987648  0.89908675  0.53927508    -0.06100
C539        C  0.72244074  0.86047946  0.53959519    -0.06000
C540        C  0.65041745  0.81722230  0.99205145    -0.05300
C541        C  0.64970599  0.90084952  0.49905825    -0.06100
C542        C  0.72274732  0.86299907  0.49892371    -0.06000
C543        C  0.63005498  0.77800367  0.97439116    -0.31400
N544        N  0.61432757  0.75450593  0.50436314     0.15100
C545        C  0.62699935  0.77666443  0.53922323    -0.31400
H546        H  0.62209449  0.76348313  0.56724567     0.17100
C547        C  0.61918873  0.93565785  0.98971901    -0.30400
N548        N  0.61353600  0.96191605  0.52264418     0.13900
C549        C  0.62786318  0.93747353  0.55311879    -0.30300
C550        C  0.75794222  0.89442764  0.99581475    -0.30600
N551        N  0.78628905  0.90028619  0.52654138     0.14400
H552        H  0.76714457  0.90760211  0.96868382     0.17000
C553        C  0.76185283  0.88436487  0.55506519    -0.30600
H554        H  0.77039438  0.89353648  0.58541922     0.17000
H555        H  0.62235838  0.94677448  0.58319331     0.17000
H556        H  0.62640361  0.76907443  0.94354136     0.17100
H557        H  0.61228011  0.94694886  0.96084926     0.17000
C558        C  0.67330692  0.85877978  0.80692605     0.30900
C559        C  0.67607876  0.86120094  0.72779850     0.30900
C560        C  0.65112230  0.81758105  0.78273650    -0.05300
C561        C  0.64867722  0.89909490  0.78850527    -0.06100
C562        C  0.72270619  0.86321569  0.79121405    -0.06000
C563        C  0.65312991  0.81902811  0.74286201    -0.05300
C564        C  0.64990629  0.90011936  0.74827174    -0.06100
C565        C  0.72432110  0.86479956  0.75047587    -0.06000
C566        C  0.63127243  0.78033273  0.72597339    -0.31400
N567        N  0.61530698  0.75552399  0.75429447     0.15100
C568        C  0.62713064  0.77772389  0.78929262    -0.31400
H569        H  0.61992572  0.76535958  0.81719799     0.17100
C570        C  0.62401168  0.93651633  0.73726833    -0.30400
N571        N  0.60662453  0.95729194  0.76937495     0.13900
C572        C  0.62235003  0.93525734  0.80082694    -0.30300
C573        C  0.76294117  0.89247223  0.74440236    -0.30600
N574        N  0.78512518  0.90567016  0.77894307     0.14400
H575        H  0.77240488  0.90444596  0.71690313     0.17000
C576        C  0.76045738  0.88937345  0.80720529    -0.30600
H577        H  0.76729234  0.89976893  0.83756493     0.17000
H578        H  0.61426239  0.94427745  0.83040589     0.17000
H579        H  0.62735935  0.77063928  0.69525350     0.17100
H580        H  0.61634200  0.94577156  0.70789278     0.17000
O581        O  0.11145658  0.10310453  0.00145700    -0.80000
O582        O  0.91472206  0.00713500  0.51273624    -0.64700
O583        O  0.03931183  0.05847904  0.53177775    -1.11300
C584        C  0.08813215  0.90904010  0.54347704     1.06900
O585        O  0.92578765  0.93977788  0.53807879    -0.77900
O586        O  0.99379475  0.97775435  0.58986103    -0.65500
Ni587      Ni  0.04528434  0.11433494  0.99639113     1.34900
C588        C  0.03196612  0.99909525  0.60099851     0.85600
O589        O  0.94842450  0.09238666  0.53048888    -0.78500
O590        O  0.98156734  0.13488994  0.98901892    -0.88700
C591        C  0.89959892  0.96852254  0.52210460     0.85200
O592        O  0.03817767  0.07350194  0.95197545    -0.66900
O593        O  0.05323815  0.91244828  0.56431175    -0.86200
C594        C  0.00047546  0.05142751  0.94099870     0.86000
C595        C  0.94687169  0.13237991  0.01034595     1.07600
H596        H  0.99334376  0.97171810  0.97896525     0.39400
O597        O  0.00789294  0.97563801  0.51506620    -1.08900
O598        O  0.06814904  0.99801877  0.58114003    -0.65500
Ni599      Ni  0.06998534  0.00020318  0.52574969     1.26300
O600        O  0.96583301  0.04833522  0.96239230    -0.65800
O601        O  0.09776179  0.94007307  0.52071733    -0.78100
C602        C  0.14792472  0.06158999  0.52036271     0.85400
O603        O  0.13155192  0.02675721  0.53554187    -0.65200
Ni604      Ni  0.99066286  0.93065137  0.54975404     1.27400
Ni605      Ni  0.97682125  0.03367848  0.52232775     1.26100
H606        H  0.04300341  0.07125031  0.55817699     0.39900
O607        O  0.11360822  0.10707482  0.75686169    -0.80000
O608        O  0.91070793  0.01208457  0.76117139    -0.64700
O609        O  0.03315689  0.06677446  0.78255284    -1.11300
C610        C  0.08868262  0.91767323  0.77460806     1.06900
O611        O  0.92484647  0.94229038  0.78122044    -0.77900
O612        O  0.99481868  0.97368079  0.83317352    -0.65500
Ni613      Ni  0.04742022  0.11772271  0.75293749     1.34900
C614        C  0.03204054  0.99602756  0.84503708     0.85600
O615        O  0.94124145  0.09716865  0.78491279    -0.78500
O616        O  0.98351865  0.13776600  0.74688496    -0.88700
C617        C  0.89723431  0.97218382  0.76858357     0.85200
O618        O  0.04014190  0.07871939  0.70732277    -0.66900
O619        O  0.05504475  0.91546071  0.79693998    -0.86200
C620        C  0.00243648  0.05676674  0.69618023     0.86000
C621        C  0.94808356  0.13324631  0.76712255     1.07600
H622        H  0.00021063  0.97537831  0.73140464     0.39400
O623        O  0.00455139  0.98468785  0.75864363    -1.08900
O624        O  0.06714657  0.99981370  0.82426283    -0.65500
Ni625      Ni  0.06588335  0.01097346  0.76985570     1.26300
O626        O  0.96848828  0.05225602  0.71785022    -0.65800
O627        O  0.09598252  0.95368547  0.75686174    -0.78100
C628        C  0.14088002  0.07753118  0.77061680     0.85400
O629        O  0.12659223  0.03897840  0.78067189    -0.65200
Ni630      Ni  0.99081761  0.93351047  0.78815518     1.27400
Ni631      Ni  0.97156927  0.04030286  0.77185905     1.26100
H632        H  0.03761342  0.07642195  0.80971231     0.39900
C633        C  0.15675500  0.67924868  0.98913200     0.30900
C634        C  0.15705877  0.67753615  0.56766749     0.30900
C635        C  0.14862254  0.71831321  0.50662794    -0.05300
C636        C  0.12318506  0.63951842  0.50562716    -0.06100
C637        C  0.20532075  0.65931704  0.51074144    -0.06000
C638        C  0.14798193  0.72253388  0.54689522    -0.05300
C639        C  0.12175020  0.64294717  0.54579600    -0.06100
C640        C  0.20426374  0.66296199  0.55110004    -0.06000
C641        C  0.14276045  0.76900931  0.55634511    -0.31400
N642        N  0.13838806  0.79182061  0.52310550     0.15100
C643        C  0.14231659  0.76090424  0.49278193    -0.31400
H644        H  0.12940370  0.78073712  0.97197455     0.17100
C645        C  0.08926836  0.61024795  0.55542507    -0.30400
N646        N  0.07142353  0.58682470  0.52233315     0.13900
C647        C  0.08925638  0.61149137  0.98934430    -0.30300
C648        C  0.24693561  0.64783398  0.56562521    -0.30600
N649        N  0.27340385  0.63482046  0.53569560     0.14400
H650        H  0.25763952  0.64465389  0.59576975     0.17000
C651        C  0.24825170  0.64110138  0.50203887    -0.30600
H652        H  0.25730192  0.63835160  0.97333887     0.17000
H653        H  0.08203662  0.60168347  0.95895877     0.17000
H654        H  0.14327044  0.78517100  0.58522361     0.17100
H655        H  0.08052206  0.60317598  0.58448642     0.17000
C656        C  0.15881839  0.68264957  0.73934529     0.30900
C657        C  0.15779202  0.67961567  0.81854999     0.30900
C658        C  0.15008997  0.72890989  0.76230735    -0.05300
C659        C  0.12205209  0.64966880  0.75457799    -0.06100
C660        C  0.20517855  0.66782483  0.76032183    -0.06000
C661        C  0.14924084  0.72640981  0.80234630    -0.05300
C662        C  0.12163104  0.64808670  0.79462418    -0.06100
C663        C  0.20382740  0.66546915  0.80043206    -0.06000
C664        C  0.14032139  0.76927416  0.81825580    -0.31400
N665        N  0.13628124  0.79866085  0.78959205     0.15100
C666        C  0.14307050  0.77479891  0.75536493    -0.31400
H667        H  0.14181424  0.78982666  0.72766026     0.17100
C668        C  0.08999549  0.61372230  0.80187896    -0.30400
N669        N  0.07029213  0.59497203  0.76765327     0.13900
C670        C  0.09010870  0.61650694  0.73856902    -0.30300
C671        C  0.24400794  0.64429661  0.81302536    -0.30600
N672        N  0.27127285  0.63633709  0.78270951     0.14400
H673        H  0.25189763  0.63296399  0.84177422     0.17000
C674        C  0.24820253  0.65053056  0.75028225    -0.30600
H675        H  0.26046068  0.64553453  0.72137599     0.17000
H676        H  0.08229521  0.60848748  0.70793672     0.17000
H677        H  0.13549900  0.77818789  0.84856495     0.17100
H678        H  0.08318342  0.60184846  0.83001148     0.17000
C679        C  0.37681646  0.16857047  0.55607184     0.30900
C680        C  0.37530640  0.16898563  0.97672128     0.30900
C681        C  0.38016869  0.21578166  0.53890047    -0.05300
C682        C  0.41763727  0.14357728  0.53797175    -0.06100
C683        C  0.33370899  0.14637715  0.53252822    -0.06000
C684        C  0.38153412  0.21516271  0.99987846    -0.05300
C685        C  0.41183082  0.13968190  0.99762035    -0.06100
C686        C  0.32922123  0.14968089  0.99123036    -0.06000
C687        C  0.39482176  0.25881053  0.99195185    -0.31400
N688        N  0.39957388  0.28567965  0.52312274     0.15100
C689        C  0.38919107  0.26028902  0.55301731    -0.31400
H690        H  0.39078368  0.27317970  0.58302204     0.17100
C691        C  0.44562998  0.10889129  0.98764143    -0.30400
N692        N  0.47674513  0.10023504  0.52118891     0.13900
C693        C  0.45370772  0.11784912  0.55175065    -0.30300
C694        C  0.28688467  0.13291192  0.97454006    -0.30600
N695        N  0.26727068  0.11449727  0.50556292     0.14400
H696        H  0.27684313  0.12828046  0.94394238     0.17000
C697        C  0.29038860  0.12772889  0.53986410    -0.30600
H698        H  0.27518972  0.12644906  0.56767687     0.17000
H699        H  0.46181347  0.11168412  0.58184075     0.17000
H700        H  0.40195926  0.27051613  0.96380637     0.17100
H701        H  0.45472132  0.09786862  0.95869943     0.17000
C702        C  0.37581318  0.17036496  0.80622979     0.30900
C703        C  0.37695778  0.17122383  0.72678172     0.30900
C704        C  0.38839375  0.21621562  0.79010373    -0.05300
C705        C  0.41000056  0.13787778  0.78641935    -0.06100
C706        C  0.32931060  0.15630541  0.78327241    -0.06000
C707        C  0.38888261  0.21701094  0.74985646    -0.05300
C708        C  0.41076872  0.13864090  0.74628863    -0.06100
C709        C  0.32958178  0.15803080  0.74299888    -0.06000
C710        C  0.40086174  0.26113163  0.74206665    -0.31400
N711        N  0.40918264  0.28598703  0.77620222     0.15100
C712        C  0.40087649  0.25925199  0.80568630    -0.31400
H713        H  0.40435398  0.27023336  0.83616403     0.17100
C714        C  0.44352985  0.10795898  0.73424951    -0.30400
N715        N  0.46230133  0.08826734  0.76590463     0.13900
C716        C  0.44145774  0.10583388  0.79765225    -0.30300
C717        C  0.28509958  0.14548132  0.72807359    -0.30600
N718        N  0.25908052  0.13354879  0.75750959     0.14400
H719        H  0.27233129  0.14459058  0.69801713     0.17000
C720        C  0.28559401  0.13958225  0.79129385    -0.30600
H721        H  0.27360210  0.13254142  0.81943083     0.17000
H722        H  0.44900383  0.09615138  0.82688138     0.17000
H723        H  0.40230788  0.27491659  0.71393432     0.17100
H724        H  0.45257473  0.10031032  0.70465897     0.17000
O725        O  0.62546894  0.49718048  0.99407411    -0.80000
O726        O  0.43319440  0.59582470  0.51011964    -0.64700
O727        O  0.55027355  0.53385526  0.52285270    -1.11300
C728        C  0.45973830  0.40025766  0.51160185     1.06900
O729        O  0.38532313  0.54373438  0.53249947    -0.77900
O730        O  0.45464436  0.50760581  0.57757278    -0.65500
Ni731      Ni  0.59321993  0.55372883  0.99083103     1.34900
C732        C  0.49490179  0.49224162  0.58656228     0.85600
O733        O  0.52179206  0.62302890  0.53204971    -0.78500
O734        O  0.56972704  0.61439237  0.98552062    -0.88700
C735        C  0.39310337  0.58310820  0.52046954     0.85200
O736        O  0.55562924  0.52991174  0.94704621    -0.66900
O737        O  0.43879657  0.42504889  0.53630201    -0.86200
C738        C  0.51538998  0.54499780  0.93755629     0.86000
C739        C  0.54942694  0.63962265  0.01032249     1.07600
H740        H  0.44766522  0.50188625  0.97642236     0.39400
O741        O  0.46510988  0.50580389  0.50160664    -1.08900
O742        O  0.51730567  0.46696759  0.56296243    -0.65500
Ni743      Ni  0.52309083  0.47433894  0.50814978     1.26300
O744        O  0.49252419  0.57046996  0.96063030    -0.65800
O745        O  0.49305257  0.41629632  0.49336672    -0.78100
C746        C  0.62231521  0.45611754  0.50375744     0.85400
O747        O  0.58196412  0.44378675  0.51383203    -0.65200
Ni748      Ni  0.41656064  0.48637582  0.53330155     1.27400
Ni749      Ni  0.49218569  0.56528942  0.51633410     1.26100
H750        H  0.56164380  0.53667766  0.54969848     0.39900
O751        O  0.63031479  0.50169467  0.74364505    -0.80000
O752        O  0.43089951  0.59756457  0.75684606    -0.64700
O753        O  0.54833502  0.53757894  0.77202091    -1.11300
C754        C  0.46092768  0.40245349  0.76022820     1.06900
O755        O  0.38390724  0.54568255  0.78034987    -0.77900
O756        O  0.45235035  0.50858390  0.82581543    -0.65500
Ni757      Ni  0.59761290  0.55818316  0.74161786     1.34900
C758        C  0.49232779  0.49288664  0.83522441     0.85600
O759        O  0.51834748  0.62622067  0.78003217    -0.78500
O760        O  0.57348347  0.61869301  0.73789431    -0.88700
C761        C  0.39113176  0.58484826  0.76767742     0.85200
O762        O  0.56169011  0.53591593  0.69641411    -0.66900
O763        O  0.43746260  0.42695975  0.78337993    -0.86200
C764        C  0.52128312  0.55041011  0.68665872     0.86000
C765        C  0.55203574  0.64278743  0.76275431     1.07600
H766        H  0.45294442  0.50488210  0.72277561     0.39400
O767        O  0.46407661  0.50803378  0.74969885    -1.08900
O768        O  0.51605270  0.46940101  0.81143547    -0.65500
Ni769      Ni  0.52253739  0.47763129  0.75700324     1.26300
O770        O  0.49763734  0.57517861  0.70973110    -0.65800
O771        O  0.49397665  0.41914667  0.74209922    -0.78100
C772        C  0.62230508  0.46191125  0.75479206     0.85400
O773        O  0.58189220  0.44831178  0.76365206    -0.65200
Ni774      Ni  0.41518684  0.48826812  0.78077589     1.27400
Ni775      Ni  0.48996750  0.56794762  0.76431439     1.26100
H776        H  0.55904129  0.54063987  0.79902125     0.39900
C777        C  0.51251515  0.50217674  0.87465416    -0.15600
C778        C  0.49433565  0.53378025  0.89868428    -0.30700
H779        H  0.54409546  0.48438560  0.88340340     0.13500
H780        H  0.46282104  0.55161267  0.88984376     0.14000
C781        C  0.51674711  0.50414399  0.62519679    -0.15600
C782        C  0.50048353  0.53845310  0.64775810    -0.30700
H783        H  0.54749503  0.48556449  0.63468134     0.13500
H784        H  0.46971614  0.55694909  0.63818921     0.14000
C785        C  0.44981918  0.35314626  0.75571547    -0.15600
C786        C  0.42308944  0.33327489  0.78103300    -0.30700
H787        H  0.46327611  0.33306513  0.73151846     0.13500
H788        H  0.41262636  0.35283428  0.80671804     0.14000
C789        C  0.33710104  0.18612412  0.91084479    -0.12500
C790        C  0.37683487  0.17233319  0.93278792     0.09700
C791        C  0.41872059  0.16717671  0.91356561    -0.12500
C792        C  0.41860946  0.16766382  0.87314507    -0.12500
C793        C  0.37647713  0.17229706  0.85060610     0.09700
C794        C  0.33675026  0.18566899  0.87038388    -0.12500
H795        H  0.30606694  0.19735046  0.92491366     0.13700
H796        H  0.45197228  0.16426145  0.92960454     0.13700
H797        H  0.45184358  0.16525435  0.85975045     0.13700
H798        H  0.30552007  0.19664677  0.85477376     0.13700
C799        C  0.40996151  0.19667868  0.62371532    -0.12500
C800        C  0.37858980  0.16762365  0.60036500     0.09700
C801        C  0.35480159  0.13338950  0.61890696    -0.12500
C802        C  0.35489620  0.13429146  0.65933868    -0.12500
C803        C  0.37906593  0.16923857  0.68259695     0.09700
C804        C  0.41030548  0.19738532  0.66419086    -0.12500
H805        H  0.43504949  0.21831186  0.61078431     0.13700
H806        H  0.33742921  0.10477273  0.60253815     0.13700
H807        H  0.33658957  0.10701477  0.67233356     0.13700
H808        H  0.43620785  0.21896281  0.68077410     0.13700
C809        C  0.41411287  0.33293376  0.52779101    -0.15600
C810        C  0.44571674  0.35143756  0.50549308    -0.30700
H811        H  0.40080884  0.35339691  0.55187725     0.13500
H812        H  0.46133112  0.33057360  0.48281618     0.14000
C813        C  0.31216712  0.60839848  0.78475092    -0.15600
C814        C  0.35082601  0.61614705  0.76524675    -0.30700
H815        H  0.31215884  0.58099621  0.80452241     0.13500
H816        H  0.35272764  0.64549914  0.74769698     0.14000
C817        C  0.19800042  0.69236000  0.92680556    -0.12500
C818        C  0.15683288  0.68129022  0.94505158     0.09700
C819        C  0.11462790  0.67718867  0.92181808    -0.12500
C820        C  0.11486381  0.67660959  0.88134236    -0.12500
C821        C  0.15728930  0.68053639  0.86282776     0.09700
C822        C  0.19815881  0.69224098  0.88640503    -0.12500
H823        H  0.23003474  0.70228701  0.94361978     0.13700
H824        H  0.08119932  0.67470603  0.93487503     0.13700
H825        H  0.08162213  0.67377040  0.86465085     0.13700
H826        H  0.23033334  0.70216996  0.87379683     0.13700
C827        C  0.17501605  0.64268020  0.63278784    -0.12500
C828        C  0.15533472  0.67825396  0.61206268     0.09700
C829        C  0.12997763  0.71104836  0.63315174    -0.12500
C830        C  0.13064943  0.71230931  0.67373431    -0.12500
C831        C  0.15729135  0.68129854  0.69482550     0.09700
C832        C  0.17628618  0.64433650  0.67341254    -0.12500
H833        H  0.18933889  0.61323179  0.61758497     0.13700
H834        H  0.10755343  0.73447238  0.61849940     0.13700
H835        H  0.10825870  0.73629752  0.68812841     0.06100
H836        H  0.19147586  0.61609263  0.68800018     0.13700
C837        C  0.31571418  0.60909318  0.53989130    -0.15600
C838        C  0.35274510  0.61433345  0.51782983    -0.30700
H839        H  0.31767776  0.58478788  0.56236179     0.13500
H840        H  0.35282040  0.64097916  0.49740097     0.14000
C841        C  0.21044624  0.11991050  0.75294220    -0.15600
C842        C  0.19143499  0.08923647  0.77512333    -0.30700
H843        H  0.18906800  0.13379867  0.72966950     0.13500
H844        H  0.21337105  0.07219220  0.79618938     0.14000
C845        C  0.11886744  0.87687347  0.76987418    -0.15600
C846        C  0.11779791  0.84401293  0.79561694    -0.30700
H847        H  0.13897498  0.87234495  0.74428703     0.13500
H848        H  0.09966320  0.85098421  0.82206296     0.14000
C849        C  0.19896038  0.07166008  0.52432824    -0.15600
C850        C  0.21923102  0.09891434  0.49990608    -0.30700
H851        H  0.20896737  0.06585137  0.04193068     0.13500
H852        H  0.19889270  0.10980573  0.47475453     0.14000
C853        C  0.11706371  0.86818434  0.54846452    -0.15600
C854        C  0.12706664  0.83934499  0.51850518    -0.30700
H855        H  0.12033658  0.85655800  0.57756447     0.13500
H856        H  0.12080057  0.85039220  0.48931062     0.14000
C857        C  0.99663318  0.02807507  0.90258376    -0.15600
C858        C  0.03520108  0.01881639  0.88359560    -0.30700
H859        H  0.96206280  0.01668599  0.89047496     0.13500
H860        H  0.06974028  0.03022893  0.89577227     0.14000
C861        C  0.03558682  0.02548265  0.63792984    -0.15600
C862        C  0.99765701  0.03432910  0.65760350    -0.30700
H863        H  0.07021816  0.03790095  0.64911427     0.13500
H864        H  0.96309502  0.02145880  0.64667170     0.14000
C865        C  0.56763413  0.02162550  0.73892061    -0.12500
C866        C  0.57178280  0.99199981  0.76925824     0.09700
C867        C  0.53934713  0.99465395  0.79824895    -0.12500
C868        C  0.50333254  0.02580977  0.79681938    -0.12500
C869        C  0.49893631  0.05534570  0.76649293     0.09700
C870        C  0.53151863  0.05301807  0.73754024    -0.12500
H871        H  0.59238458  0.02071700  0.71635622     0.13700
H872        H  0.54064554  0.97160271  0.82145514     0.13700
H873        H  0.47832893  0.02590243  0.81914389     0.13700
H874        H  0.52958060  0.07584068  0.71415873     0.13700
C875        C  0.59507735  0.71064618  0.74663802    -0.15600
C876        C  0.56646198  0.69111600  0.77053663    -0.30700
H877        H  0.60353721  0.69209385  0.71983066     0.13500
H878        H  0.55513880  0.71004874  0.79618826     0.14000
C879        C  0.82927047  0.92958814  0.78645460    -0.15600
C880        C  0.84740647  0.95829902  0.76224293    -0.30700
H881        H  0.84966039  0.92247917  0.81283060     0.13500
H882        H  0.82687933  0.96917560  0.73724673     0.14000
C883        C  0.51800172  0.03898637  0.55374394    -0.12500
C884        C  0.51442523  0.06841231  0.52331911     0.09700
C885        C  0.54698875  0.06496669  0.49435004    -0.12500
C886        C  0.58105539  0.03131737  0.49494868    -0.12500
C887        C  0.58305455  0.00046223  0.52448766     0.09700
C888        C  0.55185542  0.00547244  0.55432420    -0.12500
H889        H  0.49321120  0.04030138  0.57625956     0.13700
H890        H  0.54573655  0.08789906  0.47101735     0.13700
H891        H  0.60522895  0.02894494  0.47196672     0.13700
H892        H  0.55181136  0.98198554  0.57718886     0.13700
C893        C  0.71151323  0.84565223  0.91434887    -0.12500
C894        C  0.67197757  0.86026916  0.93381266     0.09700
C895        C  0.63043727  0.86721074  0.91107184    -0.12500
C896        C  0.63027333  0.86521667  0.87037284    -0.12500
C897        C  0.67161667  0.85609408  0.85115443     0.09700
C898        C  0.71113309  0.84308659  0.87386596    -0.12500
H899        H  0.74271716  0.83506666  0.93029025     0.13700
H900        H  0.59790400  0.87401332  0.92475349     0.13700
H901        H  0.59780930  0.87118913  0.85395676     0.13700
H902        H  0.74207352  0.83043287  0.86049214     0.13700
C903        C  0.63227444  0.86392582  0.62041328    -0.12500
C904        C  0.67307129  0.85431988  0.60067866     0.09700
C905        C  0.71279011  0.84070696  0.62285285    -0.12500
C906        C  0.71415125  0.84382179  0.66340221    -0.12500
C907        C  0.67519677  0.85905714  0.68333280     0.09700
C908        C  0.63322310  0.86586350  0.66108784    -0.12500
H909        H  0.59970873  0.87059592  0.60438205     0.13700
H910        H  0.74308931  0.82723013  0.60904948     0.13700
H911        H  0.74555353  0.83315881  0.67901776     0.13700
H912        H  0.60099158  0.87284997  0.67515654     0.13700
C913        C  0.59540033  0.70891972  0.49711538    -0.15600
C914        C  0.56946949  0.68806771  0.52225473    -0.30700
H915        H  0.60238554  0.69096054  0.46967373     0.13500
H916        H  0.55200982  0.70791517  0.04172350     0.14000
C917        C  0.83220573  0.92059483  0.53379204    -0.15600
C918        C  0.84968387  0.95452280  0.51404133    -0.30700
H919        H  0.85339613  0.90786346  0.55774177     0.13500
H920        H  0.82816730  0.97051075  0.49205629     0.14000
C921        C  0.03180444  0.52730746  0.73065989    -0.12500
C922        C  0.03489949  0.55835915  0.76344220     0.09700
C923        C  0.00272132  0.55288225  0.79230007    -0.12500
C924        C  0.96873877  0.51729283  0.78865956    -0.12500
C925        C  0.96589798  0.48589352  0.75606848     0.09700
C926        C  0.99787855  0.49159713  0.72705704    -0.12500
H927        H  0.05625438  0.53002279  0.70809527     0.13700
H928        H  0.00341479  0.57654579  0.81761395     0.13700
H929        H  0.94439137  0.51469575  0.81130189     0.13700
H930        H  0.99740206  0.46783331  0.70183280     0.13700
C931        C  0.91428355  0.17134907  0.76857745    -0.15600
C932        C  0.91438839  0.20264451  0.74146268    -0.30700
H933        H  0.89064704  0.17451205  0.79204257     0.13500
H934        H  0.93608954  0.19687270  0.71688541     0.14000
C935        C  0.70053087  0.43620184  0.73723410    -0.15600
C936        C  0.66234166  0.43059176  0.75780563    -0.30700
H937        H  0.70074243  0.46222294  0.71620066     0.13500
H938        H  0.66025180  0.40214157  0.77634101     0.14000
C939        C  0.99960198  0.48288475  0.48257960    -0.12500
C940        C  0.96504429  0.47960800  0.50971543     0.09700
C941        C  0.96721369  0.51142720  0.54209433    -0.12500
C942        C  0.00242721  0.54601307  0.54672075    -0.12500
C943        C  0.03651462  0.54970112  0.51912087     0.09700
C944        C  0.03478777  0.51719918  0.48726376    -0.12500
H945        H  0.99992169  0.45840375  0.45787623     0.13700
H946        H  0.94113141  0.51014527  0.56352803     0.13700
H947        H  0.00226537  0.57050096  0.57143236     0.13700
H948        H  0.06092867  0.51796406  0.46587267     0.13700
C949        C  0.88943328  0.35994978  0.89239291    -0.12500
C950        C  0.84690978  0.35480374  0.91060435     0.09700
C951        C  0.80612388  0.34389790  0.88673323    -0.12500
C952        C  0.80666754  0.34437251  0.84641379    -0.12500
C953        C  0.84795543  0.35594465  0.82848489     0.09700
C954        C  0.88994397  0.36057631  0.85194647    -0.12500
H955        H  0.92242782  0.36356494  0.90942851     0.13700
H956        H  0.77368710  0.33407299  0.89898825     0.13700
H957        H  0.77466813  0.33482450  0.82935641     0.13700
H958        H  0.92333851  0.36450004  0.83905624     0.13700
C959        C  0.89200724  0.35653307  0.64140000    -0.12500
C960        C  0.85014545  0.35191488  0.66057729     0.09700
C961        C  0.80900488  0.33903497  0.63765173    -0.12500
C962        C  0.80828422  0.33758158  0.59713961    -0.12500
C963        C  0.84894976  0.34803193  0.57800654     0.09700
C964        C  0.89145571  0.35418130  0.60075613    -0.12500
H965        H  0.92532334  0.36172016  0.65775820     0.13700
H966        H  0.77706946  0.32969553  0.65091635     0.13700
H967        H  0.77586810  0.32736021  0.58095729     0.13700
H968        H  0.92442922  0.35762654  0.58711359     0.13700
C969        C  0.91471738  0.17160270  0.01277962    -0.15600
C970        C  0.91439587  0.20312241  0.98597216    -0.30700
H971        H  0.89970343  0.16902564  0.53655396     0.13500
H972        H  0.93472082  0.19718009  0.96058524     0.14000
C973        C  0.66146212  0.42320961  0.50595114    -0.15600
C974        C  0.70115678  0.42863516  0.48705439    -0.30700
H975        H  0.65332418  0.39510984  0.02398020     0.13500
H976        H  0.70374811  0.45628198  0.46771836     0.14000
loop_ 
_geom_bond_atom_site_label_1 
_geom_bond_atom_site_label_2 
_geom_bond_distance 
_geom_bond_site_symmetry_2 
_ccdc_geom_bond_type 
C1            C3   1.536       .  S
C1            C5   1.550       .  S
C1            C4   1.547       .  S
C1          C462   1.538       .  S
C2            C6   1.535       .  S
C2            C8   1.551       .  S
C2            C7   1.549       .  S
C2          C475   1.531       .  S
C3           C11   1.380       .  A
C3          C494   1.389       .  A
C4           C15   1.385       .  A
C4          C495   1.394       .  A
C5           C19   1.387       .  A
C5          C496   1.408       .  A
C6            C9   1.383       .  A
C6          C491   1.388   1_554  A
C7           C13   1.384       .  A
C7          C492   1.393   1_554  A
C8           C16   1.389       .  A
C8          C493   1.407   1_554  A
C9           H22   1.082       .  S
C9          N498   1.362   1_554  A
N10          C11   1.360       .  A
N10         C497   1.363       .  A
N10         C482   1.448       .  S
C11          H12   1.083       .  S
C13          H23   1.081       .  S
C13          N14   1.362       .  A
N14         C503   1.361   1_554  A
N14         C452   1.450       .  S
C15          H21   1.081       .  S
C15         N502   1.364       .  A
C16          H18   1.082       .  S
C16          N17   1.355   1_554  A
N17         C507   1.351       .  A
N17         C486   1.437       .  S
C19          H20   1.082       .  S
C19         N505   1.352       .  A
C24          C26   1.531       .  S
C24          C28   1.542       .  S
C24          C27   1.540       .  S
C24         C472   1.533       .  S
C25          C29   1.535       .  S
C25          C31   1.552       .  S
C25          C30   1.550       .  S
C25         C465   1.534       .  S
C26          C34   1.375       .  A
C26          C29   1.389       .  A
C27          C38   1.379       .  A
C27          C30   1.395       .  A
C28          C42   1.381       .  A
C28          C31   1.407       .  A
C29          C32   1.382       .  A
C30          C36   1.382       .  A
C31          C39   1.390       .  A
C32          H45   1.082       .  S
C32          N33   1.361       .  A
N33          C34   1.358       .  A
N33         C444   1.439       .  S
C34          H35   1.083       .  S
C36          H46   1.081       .  S
C36          N37   1.364       .  A
N37          C38   1.360       .  A
N37         C437   1.449       .  S
C38          H44   1.081       .  S
C39          H41   1.082       .  S
C39          N40   1.355       .  A
N40          C42   1.349       .  A
N40         C447   1.437       .  S
C42          H43   1.082       .  S
C47          C49   1.529       .  S
C47          C51   1.544       .  S
C47          C50   1.539       .  S
C47         C416   1.536       .  S
C48          C52   1.525       .  S
C48         C406   1.531       .  S
C48         C542   1.545       .  S
C48         C541   1.535       .  S
C49          C57   1.378       .  A
C49         C540   1.388   1_554  A
C50          C61   1.372       .  A
C50          C53   1.399   1_554  A
C51          C65   1.380       .  A
C51          C54   1.415       .  A
C52          C55   1.369       .  A
C52         C537   1.388       .  A
C53         C536   1.536       .  S
C53         C547   1.371       .  A
C54         C536   1.544   1_554  S
C54         C550   1.388   1_554  A
C55          H68   1.083       .  S
C55         N544   1.353       .  A
N56          C57   1.361       .  A
N56         C543   1.353   1_554  A
N56         C425   1.432   1_554  S
C57          H58   1.082       .  S
C59         C541   1.373       .  A
C59          H69   1.081       .  S
C59         N548   1.359       .  A
N60          C61   1.357       .  A
N60         C547   1.358   1_554  A
N60         C399   1.432       .  S
C61          H67   1.081       .  S
C62         C542   1.392       .  A
C62          H64   1.082       .  S
C62         N551   1.352       .  A
N63          C65   1.345       .  A
N63         C550   1.352   1_554  A
N63         C429   1.433       .  S
C65          H66   1.082       .  S
C70          C72   1.527       .  S
C70          C74   1.541       .  S
C70          C73   1.542       .  S
C70         C409   1.536       .  S
C71          C75   1.523       .  S
C71          C77   1.543       .  S
C71          C76   1.533       .  S
C71         C419   1.530       .  S
C72          C80   1.377       .  A
C72          C75   1.388       .  A
C73          C84   1.372       .  A
C73          C76   1.399       .  A
C74          C88   1.375       .  A
C74          C77   1.414       .  A
C75          C78   1.366       .  A
C76          C82   1.371       .  A
C77          C85   1.389       .  A
C78          H91   1.083       .  S
C78          N79   1.352       .  A
N79          C80   1.360       .  A
N79         C387   1.428       .  S
C80          H81   1.082       .  S
C82          H92   1.082       .  S
C82          N83   1.355       .  A
N83          C84   1.358       .  A
N83         C378   1.430       .  S
C84          H90   1.081       .  S
C85          H87   1.082       .  S
C85          N86   1.354       .  A
N86          C88   1.342       .  A
N86         C391   1.430       .  S
C88          H89   1.082       .  S
O93         Ni99   1.924       .  S
O93         C602   1.273       .  A
O94        Ni117   1.918       .  S
O94         C103   1.271   1_545  A
O95        Ni117   1.915   1_455  S
O95        Ni111   1.936       .  S
O95        Ni587   1.916   1_554  S
O95         H118   0.966       .  S
C96         O113   1.270       .  A
C96         O105   1.270       .  A
C96         C365   1.489       .  S
O97        Ni116   1.909       .  S
O97         C103   1.271       .  A
O98        Ni116   1.884       .  S
O98         C100   1.268   1_655  A
Ni99        O102   1.943   1_455  S
Ni99        O104   1.889       .  S
Ni99        O583   1.913       .  S
C100        O110   1.273       .  A
C100        C373   1.459   1_565  S
O101       Ni117   1.925       .  S
O101        C595   1.271       .  A
O102        C107   1.275       .  A
C103        C430   1.475       .  S
O104        C106   1.268       .  A
O105       Ni116   1.929   1_455  S
C106        O112   1.269   1_455  A
C106        C369   1.456       .  S
C107        O589   1.273       .  A
C107        C481   1.494       .  S
H108        O597   0.967       .  S
O109       Ni117   1.927   1_565  S
O109       Ni111   1.905   1_665  S
O109       Ni116   1.911       .  S
O109        H596   0.966   1_554  S
O110       Ni111   1.937   1_565  S
Ni111       O115   1.903       .  S
Ni111       O113   1.931   1_545  S
O112       Ni605   1.922       .  S
C114        O115   1.267       .  A
C114        O581   1.272       .  A
C114        C361   1.470       .  S
Ni117       O600   1.934   1_554  S
O119       Ni125   1.907       .  S
O119        C140   1.270       .  A
O120       Ni143   1.910       .  S
O120        C129   1.268   1_545  A
O121       Ni125   1.913       .  S
O121       Ni143   1.909   1_455  S
O121       Ni137   1.937       .  S
O121        H144   0.965       .  S
C122        O139   1.273       .  A
C122        O131   1.272       .  A
C122        C357   1.489       .  S
O123       Ni142   1.914       .  S
O123        C129   1.272       .  A
O124       Ni142   1.892       .  S
O124        C126   1.270   1_655  A
Ni125       O128   1.927   1_455  S
Ni125       O130   1.889       .  S
C126        O136   1.271       .  A
C126        C370   1.457   1_565  S
O127       Ni143   1.927       .  S
O127        C133   1.270       .  A
O128        C133   1.269       .  A
C129        C392   1.473       .  S
O130        C132   1.270       .  A
O131       Ni142   1.933   1_455  S
C132        O138   1.274   1_455  A
C132        C374   1.455   1_455  S
C133        C443   1.484       .  S
H134        O135   0.966   1_655  S
O135       Ni143   1.927   1_465  S
O135       Ni137   1.906   1_565  S
O135       Ni142   1.911   1_455  S
O136       Ni137   1.930   1_565  S
Ni137       O141   1.911       .  S
Ni137       O139   1.930   1_545  S
O138       Ni143   1.932       .  S
C140        O141   1.269       .  A
C140        C354   1.472       .  S
C145        C330   1.530       .  S
C145        C635   1.530       .  S
C145        C637   1.546       .  S
C145        C636   1.543       .  S
C146        C150   1.544       .  S
C146        C152   1.541       .  S
C146        C151   1.533       .  S
C146        C340   1.534       .  S
C147        C633   1.544   1_554  S
C147        C155   1.390       .  A
C147        C150   1.395       .  A
C148        C633   1.550   1_554  S
C148        C151   1.390       .  A
C148        C647   1.385   1_554  A
C149        C633   1.555   1_554  S
C149        C163   1.391       .  A
C149        C152   1.398       .  A
C150        C153   1.376       .  A
C151        C157   1.379       .  A
C152        C160   1.377       .  A
C153        H166   1.080       .  S
C153        N154   1.354       .  A
N154        C155   1.363       .  A
N154        C366   1.442       .  S
C155        H644   1.082   1_554  S
H156        C643   1.083       .  S
C157        H167   1.082       .  S
C157        N158   1.361       .  A
N158        C647   1.364   1_554  A
N158        C455   1.451       .  S
C159        C636   1.380       .  A
C159        H165   1.081       .  S
C159        N646   1.362       .  A
C160        H162   1.081       .  S
C160        N161   1.352       .  A
N161        C163   1.361       .  A
N161        C349   1.439       .  S
C163        H652   1.082   1_554  S
H164        C651   1.082       .  S
C168        C170   1.557       .  S
C168        C172   1.556       .  S
C168        C171   1.541       .  S
C168        C343   1.530       .  S
C169        C173   1.531       .  S
C169        C175   1.540       .  S
C169        C174   1.538       .  S
C169        C333   1.531       .  S
C170        C178   1.394       .  A
C170        C173   1.394       .  A
C171        C182   1.382       .  A
C171        C174   1.389       .  A
C172        C186   1.393       .  A
C172        C175   1.398       .  A
C173        C176   1.373       .  A
C174        C180   1.379       .  A
C175        C183   1.375       .  A
C176        H189   1.083       .  S
C176        N177   1.356       .  A
N177        C178   1.363       .  A
N177        C358   1.444       .  S
C178        H179   1.080       .  S
C180        H190   1.081       .  S
C180        N181   1.361       .  A
N181        C182   1.362       .  A
N181        C434   1.448       .  S
C182        H188   1.082       .  S
C183        H185   1.082       .  S
C183        N184   1.352       .  A
N184        C186   1.361       .  A
N184        C325   1.439       .  S
C186        H187   1.081       .  S
C191        C193   1.538       .  S
C191        C195   1.545       .  S
C191        C194   1.526       .  S
C191        C312   1.532       .  S
C192        C196   1.532       .  S
C192        C198   1.543       .  S
C192        C197   1.543       .  S
C192        C302   1.532       .  S
C193        C201   1.375       .  A
C193        C684   1.395   1_554  A
C194        C205   1.369       .  A
C194        C685   1.396   1_554  A
C195        C209   1.381       .  A
C195        C686   1.401   1_554  A
C196        C199   1.377       .  A
C196        C681   1.397       .  A
C197        C203   1.380       .  A
C197        C682   1.395       .  A
C198        C206   1.378       .  A
C198        C683   1.397       .  A
C199        H212   1.082       .  S
C199        N688   1.357       .  A
N200        C201   1.353       .  A
N200        C687   1.358   1_554  A
N200        C321   1.432       .  S
C201        H202   1.082       .  S
C203        H213   1.081       .  S
C203        N692   1.360       .  A
N204        C205   1.354       .  A
N204        C691   1.358   1_554  A
N204        C396   1.430       .  S
C205        H211   1.082       .  S
C206        H208   1.082       .  S
C206        N695   1.352       .  A
N207        C209   1.357       .  A
N207        C694   1.352   1_554  A
N207        C362   1.433   1_554  S
C209        H210   1.081       .  S
C214        C216   1.530       .  S
C214        C218   1.541       .  S
C214        C217   1.533       .  S
C214        C305   1.531       .  S
C215        C219   1.540       .  S
C215        C221   1.543       .  S
C215        C220   1.529       .  S
C215        C315   1.533       .  S
C216        C224   1.370       .  A
C216        C219   1.397       .  A
C217        C228   1.370       .  A
C217        C220   1.394       .  A
C218        C232   1.381       .  A
C218        C221   1.400       .  A
C219        C222   1.379       .  A
C220        C226   1.372       .  A
C221        C229   1.374       .  A
C222        H235   1.081       .  S
C222        N223   1.358       .  A
N223        C224   1.352       .  A
N223        C298   1.430       .  S
C224        H225   1.083       .  S
C226        H236   1.082       .  S
C226        N227   1.357       .  A
N227        C228   1.356       .  A
N227        C381   1.430       .  S
C228        H234   1.081       .  S
C229        H231   1.082       .  S
C229        N230   1.351       .  A
N230        C232   1.357       .  A
N230        C353   1.430       .  S
C232        H233   1.081       .  S
O237       Ni243   1.931       .  S
O237        C746   1.273       .  A
O238       Ni261   1.915       .  S
O238        C247   1.269       .  A
O239       Ni261   1.914       .  S
O239       Ni255   1.922       .  S
O239       Ni731   1.915   1_554  S
O239        H262   0.965       .  S
C240        O257   1.268   1_554  A
C240        O249   1.273       .  A
C240        C322   1.472       .  S
O241       Ni260   1.928       .  S
O241        C247   1.273       .  A
O242       Ni260   1.897       .  S
O242        C244   1.271       .  A
Ni243       O246   1.930       .  S
Ni243       O248   1.895       .  S
Ni243       O727   1.914       .  S
C244        O254   1.273       .  A
C244        C293   1.461       .  S
O245       Ni261   1.910       .  S
O245        C739   1.266       .  A
O246        C251   1.273       .  A
C247        C350   1.484       .  S
O248        C250   1.272       .  A
O249       Ni260   1.931       .  S
C250        O256   1.275       .  A
C250        C290   1.464       .  S
C251        O733   1.266       .  A
C251        C914   1.473       .  S
H252        O741   0.966       .  S
O253       Ni261   1.916       .  S
O253       Ni255   1.915       .  S
O253       Ni260   1.913       .  S
O253        H740   0.968   1_554  S
O254       Ni255   1.934       .  S
Ni255       O259   1.923       .  S
Ni255       O257   1.906   1_554  S
O256       Ni749   1.940       .  S
C258        O259   1.272       .  A
C258        O725   1.271   1_554  A
C258        C485   1.484       .  S
Ni261       O744   1.935   1_554  S
O263       Ni269   1.924       .  S
O263        C284   1.272       .  A
O264       Ni287   1.921       .  S
O264        C273   1.270       .  A
O265       Ni269   1.909       .  S
O265       Ni287   1.915       .  S
O265       Ni281   1.913       .  S
O265        H288   0.965       .  S
C266        O283   1.266       .  A
C266        O275   1.270       .  A
C266        C297   1.469       .  S
O267       Ni286   1.921       .  S
O267        C273   1.272       .  A
O268       Ni286   1.901       .  S
O268        C270   1.273       .  A
Ni269       O272   1.925       .  S
Ni269       O274   1.899       .  S
C270        O280   1.275       .  A
C270        C289   1.462       .  S
O271       Ni287   1.906       .  S
O271        C277   1.266       .  A
O272        C277   1.273       .  A
C273        C326   1.488       .  S
O274        C276   1.271       .  A
O275       Ni286   1.925       .  S
C276        O282   1.272       .  A
C276        C294   1.461       .  S
C277        C388   1.470       .  S
H278        O279   0.966       .  S
O279       Ni287   1.922       .  S
O279       Ni281   1.916       .  S
O279       Ni286   1.911       .  S
O280       Ni281   1.937       .  S
Ni281       O285   1.918       .  S
Ni281       O283   1.909       .  S
O282       Ni287   1.933       .  S
C284        O285   1.271       .  A
C284        C448   1.484       .  S
C289        C290   1.340       .  D
C289        H291   1.087       .  S
C290        H292   1.087       .  S
C293        C294   1.338       .  D
C293        H295   1.087       .  S
C294        H296   1.087       .  S
C297        C298   1.343       .  D
C297        H299   1.086       .  S
C298        H300   1.087       .  S
C301        C302   1.409       .  A
C301        C306   1.400       .  A
C301        H307   1.082       .  S
C302        C303   1.405       .  A
C303        C304   1.400       .  A
C303        H308   1.079       .  S
C304        C305   1.409       .  A
C304        H309   1.081       .  S
C305        C306   1.406       .  A
C306        H310   1.080       .  S
C311        C312   1.409       .  A
C311        C316   1.400       .  A
C311        H317   1.081       .  S
C312        C313   1.405       .  A
C313        C314   1.399       .  A
C313        H318   1.079       .  S
C314        C315   1.409       .  A
C314        H319   1.080       .  S
C315        C316   1.405       .  A
C316        H320   1.079       .  S
C321        C322   1.343       .  D
C321        H323   1.087       .  S
C322        H324   1.086   1_554  S
C325        C326   1.347       .  D
C325        H327   1.087       .  S
C326        H328   1.086       .  S
C329        C330   1.407       .  A
C329        C334   1.399       .  A
C329        H335   1.080       .  S
C330        C331   1.409       .  A
C331        C332   1.400       .  A
C331        H336   1.081       .  S
C332        C333   1.407       .  A
C332        H337   1.081       .  S
C333        C334   1.408       .  A
C334        H338   1.081       .  S
C339        C340   1.408       .  A
C339        C344   1.400       .  A
C339        H345   1.081       .  S
C340        C341   1.406       .  A
C341        C342   1.399       .  A
C341        H346   1.078       .  S
C342        C343   1.407       .  A
C342        H347   1.078       .  S
C343        C344   1.408       .  A
C344        H348   1.080       .  S
C349        C350   1.345       .  D
C349        H351   1.087       .  S
C350        H352   1.086   1_554  S
C353        C354   1.343       .  D
C353        H355   1.087       .  S
C354        H356   1.086       .  S
C357        C358   1.351       .  D
C357        H359   1.085       .  S
C358        H360   1.087       .  S
C361        C362   1.341   1_554  D
C361        H851   1.086       .  S
C362        H364   1.087       .  S
H363        C849   1.086       .  S
C365        C366   1.348       .  D
C365        H367   1.085   1_554  S
C366        H368   1.088       .  S
C369        C370   1.336       .  D
C369        H371   1.087   1_455  S
C370        H372   1.087       .  S
C373        C374   1.339   1_455  D
C373        H375   1.087       .  S
C374        H376   1.087       .  S
C377        C378   1.403   1_545  A
C377        C382   1.395       .  A
C377        H383   1.083       .  S
C378        C379   1.402       .  A
C379        C380   1.389   1_565  A
C379        H384   1.082       .  S
C380        C381   1.401       .  A
C380        H385   1.082       .  S
C381        C382   1.404       .  A
C382        H386   1.082       .  S
C387        C388   1.340       .  D
C387        H389   1.088       .  S
C388        H390   1.086       .  S
C391        C392   1.340       .  D
C391        H393   1.088       .  S
C392        H394   1.086       .  S
C395        C396   1.402       .  A
C395        C400   1.392   1_545  A
C395        H401   1.082       .  S
C396        C397   1.403   1_554  A
C397        C398   1.392       .  A
C397        H402   1.082       .  S
C398        C399   1.402   1_546  A
C398        H403   1.082       .  S
C399        C400   1.404       .  A
C400        H404   1.082       .  S
C405        C406   1.405       .  A
C405        C410   1.397       .  A
C405        H411   1.081       .  S
C406        C407   1.410       .  A
C407        C408   1.405       .  A
C407        H412   1.082       .  S
C408        C409   1.407       .  A
C408        H413   1.081       .  S
C409        C410   1.409       .  A
C410        H414   1.082       .  S
C415        C416   1.406       .  A
C415        C420   1.403       .  A
C415        H421   1.082       .  S
C416        C417   1.409       .  A
C417        C418   1.398       .  A
C417        H422   1.081       .  S
C418        C419   1.405       .  A
C418        H423   1.081       .  S
C419        C420   1.410       .  A
C420        H424   1.082       .  S
C425        C426   1.342   1_556  D
C425        H427   1.087       .  S
C426        C739   1.473       .  S
C426        H916   1.086       .  S
H428        C914   1.086       .  S
C429        C430   1.344       .  D
C429        H431   1.088       .  S
C430        H432   1.085   1_554  S
C433        C434   1.406       .  A
C433        C438   1.403   1_455  A
C433        H439   1.082       .  S
C434        C435   1.408       .  A
C435        C436   1.399   1_455  A
C435        H440   1.082       .  S
C436        C437   1.406       .  A
C436        H441   1.081       .  S
C437        C438   1.410       .  A
C438        H442   1.082       .  S
C443        C444   1.349       .  D
C443        H445   1.086       .  S
C444        H446   1.087       .  S
C447        C448   1.347       .  D
C447        H449   1.087       .  S
C448        H450   1.086       .  S
C451        C452   1.408   1_556  A
C451        C456   1.401   1_655  A
C451        H457   1.082       .  S
C452        C453   1.407       .  A
C453        C454   1.403   1_655  A
C453        H458   1.082       .  S
C454        C455   1.409       .  A
C454        H459   1.082       .  S
C455        C456   1.407   1_554  A
C456        H460   1.081       .  S
C461        C462   1.408       .  A
C461        C466   1.406       .  A
C461        H467   1.082       .  S
C462        C463   1.409       .  A
C463        C464   1.398       .  A
C463        H468   1.081       .  S
C464        C465   1.406       .  A
C464        H469   1.081       .  S
C465        C466   1.410       .  A
C466        H470   1.081       .  S
C471        C472   1.407       .  A
C471        C476   1.403       .  A
C471        H477   1.082       .  S
C472        C473   1.409       .  A
C473        C474   1.398       .  A
C473        H478   1.081       .  S
C474        C475   1.406       .  A
C474        H479   1.081       .  S
C475        C476   1.409       .  A
C476        H480   1.082       .  S
C481        C482   1.353       .  D
C481        H971   1.086       .  S
C482        H484   1.087       .  S
H483        C969   1.086       .  S
C485        C486   1.349   1_554  D
C485        H975   1.086       .  S
C486        H488   1.087       .  S
H487        C973   1.086       .  S
C489        C491   1.532       .  S
C489        C493   1.546       .  S
C489        C492   1.542       .  S
C489        C950   1.534       .  S
C490        C494   1.541       .  S
C490        C496   1.555       .  S
C490        C495   1.550       .  S
C490        C963   1.536       .  S
C491        C499   1.376       .  A
C492        C503   1.381       .  A
C493        C507   1.382       .  A
C494        C497   1.388       .  A
C495        C501   1.384       .  A
C496        C504   1.394       .  A
C497        H510   1.082       .  S
N498        C499   1.358       .  A
N498        C970   1.441       .  S
C499        H500   1.083       .  S
C501        H511   1.081       .  S
C501        N502   1.361       .  A
N502        C940   1.453       .  S
C503        H509   1.081       .  S
C504        H506   1.082       .  S
C504        N505   1.356       .  A
N505        C974   1.445       .  S
C507        H508   1.082       .  S
C512        C514   1.536       .  S
C512        C516   1.544       .  S
C512        C515   1.547       .  S
C512        C960   1.537       .  S
C513        C517   1.536       .  S
C513        C519   1.548       .  S
C513        C518   1.553       .  S
C513        C953   1.532       .  S
C514        C522   1.376       .  A
C514        C517   1.389       .  A
C515        C526   1.384       .  A
C515        C518   1.396       .  A
C516        C530   1.382       .  A
C516        C519   1.402       .  A
C517        C520   1.385       .  A
C518        C524   1.385       .  A
C519        C527   1.387       .  A
C520        H533   1.082       .  S
C520        N521   1.361       .  A
N521        C522   1.360       .  A
N521        C932   1.442       .  S
C522        H523   1.083       .  S
C524        H534   1.081       .  S
C524        N525   1.364       .  A
N525        C526   1.363       .  A
N525        C925   1.455       .  S
C526        H532   1.081       .  S
C527        H529   1.082       .  S
C527        N528   1.356       .  A
N528        C530   1.352       .  A
N528        C935   1.438       .  S
C530        H531   1.082       .  S
C535        C537   1.530       .  S
C535        C539   1.543       .  S
C535        C538   1.542       .  S
C535        C904   1.540       .  S
C536        C540   1.526       .  S
C536        C894   1.535       .  S
C537        C545   1.379       .  A
C538        C549   1.372       .  A
C538        C541   1.397       .  A
C539        C553   1.376       .  A
C539        C542   1.416       .  A
C540        C543   1.370       .  A
C543        H556   1.083       .  S
N544        C545   1.361       .  A
N544        C913   1.432       .  S
C545        H546   1.082       .  S
C547        H557   1.082       .  S
N548        C549   1.361       .  A
N548        C887   1.439   1_565  S
C549        H555   1.081       .  S
C550        H552   1.082       .  S
N551        C553   1.342       .  A
N551        C917   1.430       .  S
C553        H554   1.082       .  S
C558        C560   1.530       .  S
C558        C562   1.545       .  S
C558        C561   1.540       .  S
C558        C897   1.542       .  S
C559        C563   1.521       .  S
C559        C565   1.544       .  S
C559        C564   1.533       .  S
C559        C907   1.536       .  S
C560        C568   1.379       .  A
C560        C563   1.389       .  A
C561        C572   1.371       .  A
C561        C564   1.398       .  A
C562        C576   1.378       .  A
C562        C565   1.418       .  A
C563        C566   1.365       .  A
C564        C570   1.370       .  A
C565        C573   1.388       .  A
C566        H579   1.083       .  S
C566        N567   1.351       .  A
N567        C568   1.361       .  A
N567        C875   1.428       .  S
C568        H569   1.082       .  S
C570        H580   1.081       .  S
C570        N571   1.357       .  A
N571        C572   1.360       .  A
N571        C866   1.435       .  S
C572        H578   1.081       .  S
C573        H575   1.082       .  S
C573        N574   1.352       .  A
N574        C576   1.343       .  A
N574        C879   1.431       .  S
C576        H577   1.082       .  S
O581       Ni587   1.922   1_554  S
O582       Ni605   1.923       .  S
O582        C591   1.270   1_545  A
O583       Ni605   1.914   1_455  S
O583       Ni599   1.938       .  S
O583        H606   0.965       .  S
C584        O601   1.276       .  A
C584        O593   1.264       .  A
C584        C853   1.480       .  S
O585       Ni604   1.899       .  S
O585        C591   1.269       .  A
O586       Ni604   1.893       .  S
O586        C588   1.273   1_655  A
Ni587       O590   1.934   1_455  S
Ni587       O592   1.888       .  S
C588        O598   1.272       .  A
C588        C861   1.450   1_565  S
O589       Ni605   1.927       .  S
O590        C595   1.272   1_556  A
C591        C918   1.480       .  S
O592        C594   1.271       .  A
O593       Ni604   1.922   1_455  S
C594        O600   1.273   1_455  A
C594        C857   1.455   1_455  S
C595        C969   1.485       .  S
O597       Ni605   1.942   1_465  S
O597       Ni599   1.906   1_565  S
O597       Ni604   1.913   1_455  S
O598       Ni599   1.927   1_565  S
Ni599       O603   1.910       .  S
Ni599       O601   1.947   1_545  S
C602        O603   1.270       .  A
C602        C849   1.476       .  S
O607       Ni613   1.918       .  S
O607        C628   1.272       .  A
O608       Ni631   1.914       .  S
O608        C617   1.269   1_545  A
O609       Ni613   1.913       .  S
O609       Ni631   1.913   1_455  S
O609       Ni625   1.937       .  S
O609        H632   0.966       .  S
C610        O627   1.273       .  A
C610        O619   1.269       .  A
C610        C845   1.493       .  S
O611       Ni630   1.908       .  S
O611        C617   1.271       .  A
O612       Ni630   1.890       .  S
O612        C614   1.270   1_655  A
Ni613       O616   1.930   1_455  S
Ni613       O618   1.890       .  S
C614        O624   1.273       .  A
C614        C858   1.452   1_565  S
O615       Ni631   1.932       .  S
O615        C621   1.273       .  A
O616        C621   1.271       .  A
C617        C880   1.471       .  S
O618        C620   1.270       .  A
O619       Ni630   1.929   1_455  S
C620        O626   1.268   1_455  A
C620        C862   1.450   1_455  S
C621        C931   1.489       .  S
H622        O623   0.966       .  S
O623       Ni631   1.940   1_465  S
O623       Ni625   1.907   1_565  S
O623       Ni630   1.913   1_455  S
O624       Ni625   1.931   1_565  S
Ni625       O629   1.909       .  S
Ni625       O627   1.939   1_545  S
O626       Ni631   1.922       .  S
C628        O629   1.269       .  A
C628        C842   1.473       .  S
C633        C818   1.532       .  S
C634        C638   1.560       .  S
C634        C640   1.550       .  S
C634        C639   1.547       .  S
C634        C828   1.540       .  S
C635        C643   1.376       .  A
C635        C638   1.394       .  A
C636        C639   1.392       .  A
C637        C651   1.386       .  A
C637        C640   1.397       .  A
C638        C641   1.393       .  A
C639        C645   1.388       .  A
C640        C648   1.382       .  A
C641        H654   1.079       .  S
C641        N642   1.368       .  A
N642        C643   1.354       .  A
N642        C854   1.452       .  S
C645        H655   1.082       .  S
C645        N646   1.366       .  A
N646        C943   1.455       .  S
C647        H653   1.081       .  S
C648        H650   1.081       .  S
C648        N649   1.357       .  A
N649        C651   1.358       .  A
N649        C837   1.440       .  S
C656        C658   1.559       .  S
C656        C660   1.555       .  S
C656        C659   1.548       .  S
C656        C831   1.538       .  S
C657        C661   1.532       .  S
C657        C663   1.540       .  S
C657        C662   1.540       .  S
C657        C821   1.533       .  S
C658        C666   1.397       .  A
C658        C661   1.395       .  A
C659        C670   1.386       .  A
C659        C662   1.392       .  A
C660        C674   1.391       .  A
C660        C663   1.398       .  A
C661        C664   1.373       .  A
C662        C668   1.383       .  A
C663        C671   1.376       .  A
C664        H677   1.083       .  S
C664        N665   1.356       .  A
N665        C666   1.363       .  A
N665        C846   1.446       .  S
C666        H667   1.080       .  S
C668        H678   1.081       .  S
C668        N669   1.361       .  A
N669        C670   1.365       .  A
N669        C922   1.453       .  S
C670        H676   1.082       .  S
C671        H673   1.082       .  S
C671        N672   1.353       .  A
N672        C674   1.361       .  A
N672        C813   1.439       .  S
C674        H675   1.081       .  S
C679        C681   1.543       .  S
C679        C683   1.545       .  S
C679        C682   1.531       .  S
C679        C800   1.534       .  S
C680        C684   1.531       .  S
C680        C686   1.543       .  S
C680        C685   1.541       .  S
C680        C790   1.534       .  S
C681        C689   1.378       .  A
C682        C693   1.369       .  A
C683        C697   1.384       .  A
C684        C687   1.375       .  A
C685        C691   1.376       .  A
C686        C694   1.377       .  A
C687        H700   1.082       .  S
N688        C689   1.355       .  A
N688        C809   1.434       .  S
C689        H690   1.081       .  S
C691        H701   1.081       .  S
N692        C693   1.357       .  A
N692        C884   1.438       .  S
C693        H699   1.082       .  S
C694        H696   1.082       .  S
N695        C697   1.356       .  A
N695        C850   1.434       .  S
C697        H698   1.081       .  S
C702        C704   1.530       .  S
C702        C706   1.542       .  S
C702        C705   1.535       .  S
C702        C793   1.534       .  S
C703        C707   1.540       .  S
C703        C709   1.544       .  S
C703        C708   1.530       .  S
C703        C803   1.533       .  S
C704        C712   1.372       .  A
C704        C707   1.397       .  A
C705        C716   1.370       .  A
C705        C708   1.393       .  A
C706        C720   1.380       .  A
C706        C709   1.400       .  A
C707        C710   1.377       .  A
C708        C714   1.373       .  A
C709        C717   1.377       .  A
C710        H723   1.081       .  S
C710        N711   1.356       .  A
N711        C712   1.354       .  A
N711        C786   1.430       .  S
C712        H713   1.083       .  S
C714        H724   1.082       .  S
C714        N715   1.359       .  A
N715        C716   1.357       .  A
N715        C869   1.436       .  S
C716        H722   1.080       .  S
C717        H719   1.082       .  S
C717        N718   1.354       .  A
N718        C720   1.357       .  A
N718        C841   1.433       .  S
C720        H721   1.081       .  S
O725       Ni731   1.917       .  S
O726       Ni749   1.928       .  S
O726        C735   1.273       .  A
O727       Ni749   1.920       .  S
O727       Ni743   1.921       .  S
O727        H750   0.965       .  S
C728        O745   1.269       .  A
C728        O737   1.270       .  A
C728        C810   1.476       .  S
O729       Ni748   1.918       .  S
O729        C735   1.270       .  A
O730       Ni748   1.893       .  S
O730        C732   1.271       .  A
Ni731       O734   1.927       .  S
Ni731       O736   1.895       .  S
C732        O742   1.275       .  A
C732        C781   1.463       .  S
O733       Ni749   1.909       .  S
O734        C739   1.270   1_556  A
C735        C838   1.486       .  S
O736        C738   1.271       .  A
O737       Ni748   1.924       .  S
C738        O744   1.274       .  A
C738        C778   1.458       .  S
O741       Ni749   1.919       .  S
O741       Ni743   1.918       .  S
O741       Ni748   1.915       .  S
O742       Ni743   1.940       .  S
Ni743       O747   1.924       .  S
Ni743       O745   1.916       .  S
C746        O747   1.273       .  A
C746        C973   1.491       .  S
O751       Ni757   1.918       .  S
O751        C772   1.271       .  A
O752       Ni775   1.922       .  S
O752        C761   1.271       .  A
O753       Ni757   1.914       .  S
O753       Ni775   1.916       .  S
O753       Ni769   1.920       .  S
O753        H776   0.965       .  S
C754        O771   1.269       .  A
C754        O763   1.270       .  A
C754        C785   1.469       .  S
O755       Ni774   1.920       .  S
O755        C761   1.271       .  A
O756       Ni774   1.893       .  S
O756        C758   1.271       .  A
Ni757       O760   1.923       .  S
Ni757       O762   1.895       .  S
C758        O768   1.273       .  A
C758        C777   1.459       .  S
O759       Ni775   1.909       .  S
O759        C765   1.265       .  A
O760        C765   1.270       .  A
C761        C814   1.486       .  S
O762        C764   1.271       .  A
O763       Ni774   1.922       .  S
C764        O770   1.276       .  A
C764        C782   1.460       .  S
C765        C876   1.471       .  S
H766        O767   0.966       .  S
O767       Ni775   1.918       .  S
O767       Ni769   1.917       .  S
O767       Ni774   1.912       .  S
O768       Ni769   1.934       .  S
Ni769       O773   1.922       .  S
Ni769       O771   1.911       .  S
O770       Ni775   1.940       .  S
C772        O773   1.272       .  A
C772        C936   1.482       .  S
C777        C778   1.338       .  D
C777        H779   1.087       .  S
C778        H780   1.087       .  S
C781        C782   1.340       .  D
C781        H783   1.087       .  S
C782        H784   1.087       .  S
C785        C786   1.346       .  D
C785        H787   1.086       .  S
C786        H788   1.087       .  S
C789        C790   1.408       .  A
C789        C794   1.400       .  A
C789        H795   1.081       .  S
C790        C791   1.406       .  A
C791        C792   1.401       .  A
C791        H796   1.079       .  S
C792        C793   1.409       .  A
C792        H797   1.080       .  S
C793        C794   1.406       .  A
C794        H798   1.081       .  S
C799        C800   1.407       .  A
C799        C804   1.400       .  A
C799        H805   1.081       .  S
C800        C801   1.408       .  A
C801        C802   1.399       .  A
C801        H806   1.078       .  S
C802        C803   1.406       .  A
C802        H807   1.081       .  S
C803        C804   1.408       .  A
C804        H808   1.079       .  S
C809        C810   1.347       .  D
C809        H811   1.087       .  S
C810        H812   1.086       .  S
C813        C814   1.348       .  D
C813        H815   1.087       .  S
C814        H816   1.086       .  S
C817        C818   1.406       .  A
C817        C822   1.399       .  A
C817        H823   1.080       .  S
C818        C819   1.408       .  A
C819        C820   1.401       .  A
C819        H824   1.081       .  S
C820        C821   1.407       .  A
C820        H825   1.081       .  S
C821        C822   1.409       .  A
C822        H826   1.081       .  S
C827        C828   1.410       .  A
C827        C832   1.403       .  A
C827        H833   1.081       .  S
C828        C829   1.407       .  A
C829        C830   1.403       .  A
C829        H834   1.078       .  S
C830        C831   1.408       .  A
C830        H835   1.077       .  S
C831        C832   1.408       .  A
C832        H836   1.081       .  S
C837        C838   1.350       .  D
C837        H839   1.087       .  S
C838        H840   1.086       .  S
C841        C842   1.344       .  D
C841        H843   1.087       .  S
C842        H844   1.086       .  S
C845        C846   1.354       .  D
C845        H847   1.085       .  S
C846        H848   1.087       .  S
C849        C850   1.345       .  D
C850        H852   1.087       .  S
C853        C854   1.343       .  D
C853        H855   1.084       .  S
C854        H856   1.087       .  S
C857        C858   1.337   1_655  D
C857        H859   1.087       .  S
C858        H860   1.087       .  S
C861        C862   1.332   1_455  D
C861        H863   1.088       .  S
C862        H864   1.087       .  S
C865        C866   1.406   1_545  A
C865        C870   1.395       .  A
C865        H871   1.082       .  S
C866        C867   1.403       .  A
C867        C868   1.388   1_565  A
C867        H872   1.081       .  S
C868        C869   1.404       .  A
C868        H873   1.081       .  S
C869        C870   1.405       .  A
C870        H874   1.082       .  S
C875        C876   1.340       .  D
C875        H877   1.088       .  S
C876        H878   1.086       .  S
C879        C880   1.341       .  D
C879        H881   1.088       .  S
C880        H882   1.086       .  S
C883        C884   1.403       .  A
C883        C888   1.391       .  A
C883        H889   1.081       .  S
C884        C885   1.406       .  A
C885        C886   1.398       .  A
C885        H890   1.082       .  S
C886        C887   1.407       .  A
C886        H891   1.082       .  S
C887        C888   1.404       .  A
C888        H892   1.081   1_545  S
C893        C894   1.406       .  A
C893        C898   1.399       .  A
C893        H899   1.081       .  S
C894        C895   1.410       .  A
C895        C896   1.407       .  A
C895        H900   1.082       .  S
C896        C897   1.408       .  A
C896        H901   1.082       .  S
C897        C898   1.410       .  A
C898        H902   1.081       .  S
C903        C904   1.407       .  A
C903        C908   1.405       .  A
C903        H909   1.082       .  S
C904        C905   1.411       .  A
C905        C906   1.400       .  A
C905        H910   1.081       .  S
C906        C907   1.406       .  A
C906        H911   1.081       .  S
C907        C908   1.411       .  A
C908        H912   1.082       .  S
C913        C914   1.342       .  D
C913        H915   1.088       .  S
C917        C918   1.345       .  D
C917        H919   1.088       .  S
C918        H920   1.086       .  S
C921        C922   1.407       .  A
C921        C926   1.406   1_455  A
C921        H927   1.082       .  S
C922        C923   1.409       .  A
C923        C924   1.404   1_455  A
C923        H928   1.082       .  S
C924        C925   1.408       .  A
C924        H929   1.082       .  S
C925        C926   1.410       .  A
C926        H930   1.082       .  S
C931        C932   1.353       .  D
C931        H933   1.086       .  S
C932        H934   1.087       .  S
C935        C936   1.348       .  D
C935        H937   1.087       .  S
C936        H938   1.086       .  S
C939        C940   1.406       .  A
C939        C944   1.402   1_655  A
C939        H945   1.082       .  S
C940        C941   1.410       .  A
C941        C942   1.408   1_655  A
C941        H946   1.082       .  S
C942        C943   1.409       .  A
C942        H947   1.082       .  S
C943        C944   1.410       .  A
C944        H948   1.081       .  S
C949        C950   1.408       .  A
C949        C954   1.403       .  A
C949        H955   1.082       .  S
C950        C951   1.408       .  A
C951        C952   1.398       .  A
C951        H956   1.081       .  S
C952        C953   1.407       .  A
C952        H957   1.081       .  S
C953        C954   1.408       .  A
C954        H958   1.082       .  S
C959        C960   1.407       .  A
C959        C964   1.404       .  A
C959        H965   1.081       .  S
C960        C961   1.410       .  A
C961        C962   1.400       .  A
C961        H966   1.081       .  S
C962        C963   1.406       .  A
C962        H967   1.081       .  S
C963        C964   1.410       .  A
C964        H968   1.082       .  S
C969        C970   1.350   1_554  D
C970        H972   1.087       .  S
C973        C974   1.351       .  D
C974        H976   1.087       .  S
