geometry optimzed in LAMMPS
_audit_creation_date              2020-11-30 
_audit_creation_method            'lammps2cif' 
_symmetry_space_group_name_H-M    'P1' 
_symmetry_Int_Tables_number       1 
_symmetry_cell_setting            triclinic 
loop_ 
_symmetry_equiv_pos_as_xyz 
  x,y,z 
_cell_length_a                    37.1702401 
_cell_length_b                    36.428692784708666 
_cell_length_c                    47.02994481961613 
_cell_angle_alpha                 91.47459748818895 
_cell_angle_beta                  89.19774375202577 
_cell_angle_gamma                 110.46263573831865 
loop_ 
_atom_site_label 
_atom_site_type_symbol 
_atom_site_fract_x 
_atom_site_fract_y 
_atom_site_fract_z 
_atom_site_charge 
C1          C  0.97966520  0.98644448  0.72515468     0.46200
H2          H  0.98024202  0.98841418  0.70197609    -0.02800
C3          C  0.97248041  0.98517373  0.77965088     0.46200
H4          H  0.96805639  0.98538921  0.80266247    -0.02800
C5          C  0.01504758  0.98070149  0.74000376    -0.16500
C6          C  0.97434562  0.02410256  0.73790382    -0.16300
C7          C  0.94547271  0.95162026  0.73534956    -0.16700
C8          C  0.01219908  0.98417120  0.76988874    -0.16700
C9          C  0.97110885  0.02339987  0.76715000    -0.16200
C10         C  0.94149643  0.94999552  0.76431640    -0.16500
Zr11       Zr  0.74143902  0.34262905  0.03129726     2.17500
O12         O  0.78796918  0.34157429  0.06704829    -0.50600
O13         O  0.78812536  0.33548075  0.99649628    -0.73800
O14         O  0.73341361  0.27578958  0.04547845    -0.80600
O15         O  0.77538064  0.45385785  0.04231852    -0.82300
O16         O  0.67559432  0.23588340  0.02885685    -0.78000
O17         O  0.78890787  0.39962996  0.05327717    -0.89600
O18         O  0.76946632  0.34053195  0.95151397    -0.75600
O19         O  0.70656525  0.30597158  0.99184643    -0.85100
O20         O  0.74553926  0.38902381  0.99541136    -0.84800
O21         O  0.67731669  0.31243446  0.04965093    -0.71500
O22         O  0.71324234  0.38768252  0.05161246    -0.83600
Zr23       Zr  0.61644168  0.36678946  0.99167607     2.26400
Zr24       Zr  0.64242943  0.27657812  0.00939602     2.06300
Zr25       Zr  0.71623792  0.43310332  0.01510558     2.10000
Zr26       Zr  0.70954228  0.35221261  0.95620897     1.78800
O27         O  0.70509675  0.48021004  0.04862320    -0.92400
O28         O  0.69178121  0.29347043  0.92597439    -0.40300
O29         O  0.68120412  0.39727709  0.97505599    -0.76900
O30         O  0.64472591  0.32111143  0.97179241    -0.95600
O31         O  0.61335314  0.32121150  0.02801175    -0.88900
O32         O  0.65093448  0.40424614  0.03145502    -0.91700
C33         C  0.79297123  0.33561358  0.96937113     1.02000
C34         C  0.79558038  0.43660153  0.05443533     1.15000
C35         C  0.70775222  0.24169297  0.04132013     1.05700
O36         O  0.63865082  0.22603632  0.97354790    -0.93900
O37         O  0.57873749  0.25359044  0.98895228    -0.89600
O38         O  0.56918341  0.30696255  0.97125217    -0.82800
C39         C  0.55944190  0.26976196  0.97460831     1.12400
O40         O  0.67671012  0.35803309  0.11354652    -0.95800
Zr41       Zr  0.64807449  0.35802038  0.06729693     1.88900
O42         O  0.56417407  0.36272014  0.02530202    -0.72500
O43         O  0.60226512  0.23193482  0.04418840    -0.51800
O44         O  0.61425066  0.30794917  0.10111719    -0.96400
O45         O  0.65224692  0.41905206  0.09196203    -0.53700
O46         O  0.57981020  0.34712322  0.06859853    -0.73000
C47         C  0.55562819  0.35150460  0.05103020     0.99300
O48         O  0.57036020  0.38020645  0.96103885    -0.61800
O49         O  0.76585011  0.48649529  0.99156158    -0.56600
O50         O  0.63088054  0.43279266  0.97030516    -0.93300
O51         O  0.69215199  0.46866413  0.98214902    -0.91700
O52         O  0.75249135  0.40545778  0.92841301    -0.92100
O53         O  0.68363934  0.36320814  0.91124574    -0.90900
C54         C  0.66076348  0.46469269  0.96932489     1.18200
H55         H  0.77188986  0.40301155  0.99012905     0.34100
H56         H  0.63091999  0.30701114  0.95534101     0.45000
H57         H  0.64011005  0.42343565  0.03761131     0.38500
H58         H  0.67705017  0.29493499  0.06479593     0.35000
H59         H  0.70909767  0.30098901  0.90927540     0.26800
H60         H  0.58102207  0.24183103  0.04804315     0.32700
H61         H  0.61807157  0.28377592  0.09397367     0.38600
H62         H  0.75659008  0.42926920  0.94043535     0.33100
H63         H  0.77724528  0.50660510  0.00659241     0.31900
H64         H  0.73094483  0.49677016  0.05533116     0.33600
H65         H  0.67848453  0.42938599  0.09996460     0.32600
H66         H  0.65655452  0.35991838  0.91557992     0.36600
H67         H  0.57084793  0.36592863  0.94292631     0.29300
H68         H  0.79982039  0.32262942  0.05987110     0.33600
H69         H  0.69425750  0.34320372  0.11023442     0.36400
H70         H  0.78632155  0.47595462  0.98639421     0.29000
H71         H  0.54477739  0.36614717  0.96941097     0.41900
H72         H  0.63235905  0.23615305  0.95566336     0.31900
H73         H  0.70078126  0.27504356  0.93636237     0.39600
H74         H  0.63510127  0.41079225  0.10870089     0.31400
H75         H  0.59023269  0.20692858  0.03350627     0.31500
H76         H  0.77252979  0.32925733  0.08381957     0.31700
N77         N  0.69558203  0.70238511  0.84521278    -0.02800
C78         C  0.72260185  0.71741162  0.82423190    -0.00200
C79         C  0.70526579  0.72581334  0.80056493    -0.23100
C80         C  0.66771886  0.71849626  0.80720045    -0.23300
C81         C  0.66267164  0.70525607  0.83457309    -0.00300
H82         H  0.71965181  0.74131902  0.78194899     0.13500
H83         H  0.64743387  0.72650684  0.79474692     0.13600
Zr84       Zr  0.26993598  0.65588649  0.02633939     2.17500
O85         O  0.25933892  0.63056871  0.07438760    -0.50600
O86         O  0.21662087  0.60524019  0.00376822    -0.73800
O87         O  0.21541611  0.66843575  0.04852822    -0.80600
O88         O  0.34315175  0.60575024  0.01104841    -0.82300
O89         O  0.22015457  0.73019975  0.03687845    -0.78000
O90         O  0.28585771  0.59735575  0.03297483    -0.89600
O91         O  0.22309375  0.61331283  0.95608337    -0.75600
O92         O  0.24830779  0.68882532  0.99107253    -0.85100
O93         O  0.29572097  0.64259652  0.98220152    -0.84800
O94         O  0.29525644  0.72390523  0.04081344    -0.71500
O95         O  0.33845745  0.68003464  0.03221861    -0.83600
Zr96       Zr  0.36882624  0.77017937  0.96564483     2.26400
Zr97       Zr  0.27439772  0.75660084  0.00453173     2.06300
Zr98       Zr  0.36351174  0.66789677  0.98734149     2.10000
Zr99       Zr  0.27471409  0.67603629  0.94726880     1.78800
O100        O  0.41693684  0.65966378  0.01243614    -0.92400
O101        O  0.22020324  0.69195637  0.93083599    -0.40300
O102        O  0.34347312  0.70182253  0.95142782    -0.76900
O103        O  0.30013436  0.74446976  0.95972377    -0.95600
O104        O  0.34275582  0.78265240  0.00991597    -0.88900
O105        O  0.38977821  0.73578018  0.00058496    -0.91700
C106        C  0.20676106  0.59384114  0.97811420     1.02000
C107        C  0.31376413  0.58596060  0.02567723     1.15000
C108        C  0.20382538  0.69783333  0.04977566     1.05700
O109        O  0.21645172  0.75714069  0.98138645    -0.93900
O110        O  0.29067566  0.81618406  0.97785213    -0.89600
O111        O  0.34913759  0.82690489  0.95712473    -0.82800
C112        C  0.31936087  0.83640243  0.96267395     1.12400
O113        O  0.34882348  0.72940601  0.09378457    -0.95800
Zr114      Zr  0.36399641  0.74848617  0.04458480     1.88900
O115        O  0.42455293  0.81879847  0.98853341    -0.72500
O116        O  0.27902143  0.81121015  0.03692841    -0.51800
O117        O  0.36106967  0.80098056  0.07650211    -0.96400
O118        O  0.41321018  0.72751906  0.06528704    -0.53700
O119        O  0.42181968  0.80494700  0.03555797    -0.73000
C120        C  0.43808935  0.82519625  0.01393052     0.99300
O121        O  0.38189663  0.79872690  0.91862801    -0.61800
O122        O  0.36343844  0.61974318  0.95032061    -0.56600
O123        O  0.42096184  0.75438239  0.94165260    -0.93300
O124        O  0.41843523  0.69471656  0.95690496    -0.91700
O125        O  0.28323440  0.62968471  0.91192975    -0.92100
O126        O  0.28680281  0.69744931  0.89829610    -0.90900
C127        C  0.43373788  0.72579121  0.94259989     1.18200
H128        H  0.28725440  0.61485186  0.97770304     0.34100
H129        H  0.29289018  0.75829607  0.94489601     0.45000
H130        H  0.41747912  0.74417335  0.00129927     0.38500
H131        H  0.28451435  0.72770428  0.05901885     0.35000
H132        H  0.21081310  0.67475282  0.91387806     0.26800
H133        H  0.25213931  0.80849677  0.04145781     0.32700
H134        H  0.35868198  0.82115796  0.06372636     0.38600
H135        H  0.29698963  0.61511999  0.92204967     0.33100
H136        H  0.38730644  0.61416910  0.95340873     0.31900
H137        H  0.42710839  0.64410791  0.99913379     0.33600
H138        H  0.43363694  0.75207791  0.07149032     0.32600
H139        H  0.31334815  0.71666953  0.89841399     0.36600
H140        H  0.40994313  0.81313592  0.91795768     0.29300
H141        H  0.23201451  0.61334406  0.07502881     0.33600
H142        H  0.33856835  0.70038623  0.09293177     0.36400
H143        H  0.34255634  0.59529603  0.95560957     0.29000
H144        H  0.37746092  0.77617520  0.90525647     0.41900
H145        H  0.20969802  0.77790577  0.99168648     0.31900
H146        H  0.19999701  0.68135192  0.94541792     0.39600
H147        H  0.42466017  0.71770414  0.04901282     0.31400
H148        H  0.28917911  0.80480881  0.05472951     0.31500
H149        H  0.26085257  0.65338648  0.08684271     0.31700
N150        N  0.27263573  0.28339516  0.09509600    -0.02800
C151        C  0.24063172  0.25108209  0.10019826     0.03600
C152        C  0.20770914  0.26010830  0.09707044    -0.23100
C153        C  0.21883128  0.29817161  0.08943148    -0.23300
C154        C  0.25838596  0.31210525  0.08862573    -0.00300
H155        H  0.17838115  0.24093069  0.10061374     0.13500
H156        H  0.20005649  0.31449656  0.08562323     0.13600
N157        N  0.29443908  0.07357148  0.87003268    -0.02800
C158        C  0.26503627  0.07436094  0.85359093    -0.00200
C159        C  0.27656997  0.10795074  0.83761187    -0.23100
C160        C  0.31398845  0.12880440  0.84477247    -0.23300
C161        C  0.32420333  0.10710254  0.86466500    -0.00300
H162        H  0.25867105  0.11764666  0.82389174     0.13500
H163        H  0.33088370  0.15792950  0.83789393     0.13600
N164        N  0.98474854  0.66851453  0.18652039    -0.02800
C165        C  0.96123385  0.63167948  0.19253356    -0.00200
C166        C  0.94524791  0.63078907  0.21924798    -0.23100
C167        C  0.95927903  0.66858683  0.23001334    -0.23300
C168        C  0.98285739  0.69153419  0.20926617    -0.00300
H169        H  0.92307272  0.60626143  0.22870432     0.13500
H170        H  0.95019118  0.67888612  0.24967055     0.13600
N171        N  0.03441316  0.28671824  0.91088432    -0.02800
C172        C  0.04083664  0.25351395  0.90166446    -0.00200
C173        C  0.07928615  0.25871341  0.90478178    -0.23100
C174        C  0.09696935  0.29539632  0.91636302    -0.23300
C175        C  0.06926001  0.31241329  0.91970233    -0.00300
H176        H  0.09330693  0.23820165  0.89859645     0.13500
H177        H  0.12729541  0.30892080  0.92086967     0.13600
N178        N  0.73395181  0.98383100  0.08883886    -0.02800
C179        C  0.76218281  0.96991456  0.09639435    -0.00200
C180        C  0.75042617  0.92989370  0.09147540    -0.23100
C181        C  0.71429310  0.91838554  0.08051876    -0.23300
C182        C  0.70441067  0.95148547  0.07939731    -0.00300
H183        H  0.76616965  0.91082346  0.09626238     0.13500
H184        H  0.69637936  0.88865359  0.07491851     0.13600
Zr185      Zr  0.62932075  0.27379158  0.47383798     2.17500
O186        O  0.60557140  0.24823968  0.42658872    -0.50600
O187        O  0.57675161  0.22487516  0.49862264    -0.73800
O188        O  0.64961984  0.21947124  0.45748480    -0.80600
O189        O  0.57268350  0.34344062  0.47655657    -0.82300
O190        O  0.70958668  0.23091517  0.47458672    -0.78000
O191        O  0.57487859  0.28784048  0.45522608    -0.89600
O192        O  0.58133753  0.24289453  0.54551318    -0.75600
O193        O  0.65946905  0.26146260  0.51510452    -0.85100
O194        O  0.61158713  0.30776812  0.51246208    -0.84800
O195        O  0.69692167  0.30021634  0.46331143    -0.71500
O196        O  0.65114835  0.34183498  0.46168514    -0.83600
Zr197      Zr  0.73264965  0.39051793  0.53220725     2.26400
Zr198      Zr  0.72692102  0.28903787  0.50546785     2.06300
Zr199      Zr  0.63384802  0.37536756  0.50128794     2.10000
Zr200      Zr  0.64194494  0.29605161  0.55336213     1.78800
O201        O  0.62840038  0.42073040  0.46597585    -0.92400
O202        O  0.65177263  0.24225728  0.57794933    -0.40300
O203        O  0.66499658  0.36472908  0.54303285    -0.76900
O204        O  0.70958918  0.32255647  0.54482042    -0.95600
O205        O  0.75064597  0.35696152  0.49348406    -0.88900
O206        O  0.70096978  0.40182320  0.49134469    -0.91700
C207        C  0.56383360  0.22173245  0.52426311     1.02000
C208        C  0.55800794  0.31262655  0.46058684     1.15000
C209        C  0.68044403  0.21119895  0.45937718     1.05700
O210        O  0.72438434  0.23510620  0.53589292    -0.93900
O211        O  0.78231328  0.31506073  0.53619063    -0.89600
O212        O  0.78810303  0.37705376  0.55067557    -0.82800
C213        C  0.79930990  0.34734967  0.54979600     1.12400
O214        O  0.71325878  0.34581178  0.40332326    -0.95800
Zr215      Zr  0.71901981  0.36832771  0.45285227     1.88900
O216        O  0.77985732  0.44361393  0.50679157    -0.72500
O217        O  0.78683419  0.29059467  0.48291816    -0.51800
O218        O  0.77680724  0.35980548  0.43355907    -0.96400
O219        O  0.69828237  0.40683521  0.41946380    -0.53700
O220        O  0.76682768  0.43313820  0.45957525    -0.73000
C221        C  0.78496470  0.45404246  0.48073912     0.99300
O222        O  0.75794337  0.41436807  0.57922417    -0.61800
O223        O  0.58449879  0.38255927  0.53326087    -0.56600
O224        O  0.71482158  0.44721724  0.54637490    -0.93300
O225        O  0.65694587  0.43891267  0.52674148    -0.91700
O226        O  0.59581599  0.31574825  0.58138545    -0.92100
O227        O  0.65800397  0.31082456  0.60337537    -0.90900
C228        C  0.68675436  0.45910954  0.54130746     1.18200
H229        H  0.58416190  0.29907539  0.51508300     0.34100
H230        H  0.72201127  0.31921490  0.56195543     0.45000
H231        H  0.70774628  0.42939671  0.48771590     0.38500
H232        H  0.70311517  0.28699889  0.44697017     0.35000
H233        H  0.62762295  0.22984692  0.58868743     0.26800
H234        H  0.78381035  0.26292567  0.47867949     0.32700
H235        H  0.79068004  0.38454194  0.42376014     0.38600
H236        H  0.57093461  0.30348901  0.57158024     0.33100
H237        H  0.57601770  0.40246435  0.52434117     0.31900
H238        H  0.62015549  0.40464659  0.44836027     0.33600
H239        H  0.72234637  0.42549047  0.41151286     0.32600
H240        H  0.67096027  0.33964003  0.60439431     0.36600
H241        H  0.76928048  0.44323925  0.57792284     0.29300
H242        H  0.59202808  0.21971975  0.42868776     0.33600
H243        H  0.68837793  0.32381854  0.40241850     0.36400
H244        H  0.56238998  0.35778326  0.53112632     0.29000
H245        H  0.73490048  0.40918874  0.59145263     0.41900
H246        H  0.75114770  0.23553719  0.53646400     0.31900
H247        H  0.65148094  0.22272535  0.56284637     0.39600
H248        H  0.68781571  0.42332369  0.43159727     0.31400
H249        H  0.78688631  0.30230247  0.46417707     0.31500
H250        H  0.62866348  0.25055046  0.41497807     0.31700
N251        N  0.74541987  0.74812332  0.58760487    -0.02800
C252        C  0.78057879  0.77614138  0.59299702    -0.00200
C253        C  0.78357449  0.81089447  0.58017656    -0.23100
C254        C  0.74959406  0.80503565  0.56701449    -0.23300
C255        C  0.72681857  0.76687405  0.57202277    -0.00300
H256        H  0.80664837  0.83884434  0.58270669     0.13500
H257        H  0.74112428  0.82711891  0.55694172     0.13600
Zr258      Zr  0.26811283  0.63390647  0.46554452     2.17500
O259        O  0.23187367  0.59858430  0.42447172    -0.50600
O260        O  0.22515948  0.58721286  0.49842806    -0.73800
O261        O  0.28584460  0.57619555  0.45469227    -0.80600
O262        O  0.22160166  0.71190587  0.45982920    -0.82300
O263        O  0.34660265  0.58872413  0.47036119    -0.78000
O264        O  0.21335078  0.64886523  0.44687349    -0.89600
O265        O  0.24648501  0.60601388  0.54343136    -0.75600
O266        O  0.31055480  0.62987944  0.50188087    -0.85100
O267        O  0.25910891  0.67281951  0.50460529    -0.84800
O268        O  0.33188468  0.65867012  0.44519592    -0.71500
O269        O  0.28600410  0.69948568  0.44865818    -0.83600
Zr270      Zr  0.38334960  0.76011954  0.50572505     2.26400
Zr271      Zr  0.37414668  0.65701399  0.48273143     2.06300
Zr272      Zr  0.27862138  0.73863598  0.48805560     2.10000
Zr273      Zr  0.30083197  0.66763145  0.54094137     1.78800
O274        O  0.27802351  0.79289414  0.45909494    -0.92400
O275        O  0.32293140  0.62337493  0.56790825    -0.40300
O276        O  0.31949982  0.73361107  0.52510292    -0.76900
O277        O  0.36572413  0.69434324  0.52332814    -0.95600
O278        O  0.39239352  0.72208346  0.46614132    -0.88900
O279        O  0.34221654  0.76550403  0.46889827    -0.91700
C280        C  0.22354836  0.58229670  0.52548605     1.02000
C281        C  0.20347589  0.67948116  0.44688099     1.15000
C282        C  0.31491492  0.56592446  0.45986254     1.05700
O283        O  0.40290568  0.61558537  0.50643188    -0.93900
O284        O  0.43647211  0.68654693  0.50457963    -0.89600
O285        O  0.44127282  0.74789833  0.51944712    -0.82800
C286        C  0.45449159  0.71982933  0.51646664     1.12400
O287        O  0.31899701  0.69808888  0.38486971    -0.95800
Zr288      Zr  0.34957969  0.72518199  0.42993385     1.88900
O289        O  0.42611013  0.80512597  0.47132371    -0.72500
O290        O  0.41193263  0.65687988  0.44002824    -0.51800
O291        O  0.39132188  0.70617914  0.39686982    -0.96400
O292        O  0.32938101  0.77129604  0.40349894    -0.53700
O293        O  0.40877262  0.78015300  0.42674479    -0.73000
C294        C  0.43130401  0.80484713  0.44417087     0.99300
O295        O  0.42090147  0.80694587  0.54158672    -0.61800
O296        O  0.22420498  0.74123240  0.51652913    -0.56600
O297        O  0.36087548  0.80787938  0.53115301    -0.93300
O298        O  0.29814540  0.79435437  0.52030845    -0.91700
O299        O  0.25301881  0.68301149  0.57006013    -0.92100
O300        O  0.32937250  0.69752615  0.58598473    -0.90900
C301        C  0.32896507  0.81424310  0.53352797     1.18200
H302        H  0.23271195  0.66380722  0.51087414     0.34100
H303        H  0.38244659  0.69345600  0.53856948     0.45000
H304        H  0.34860501  0.79261694  0.46386008     0.38500
H305        H  0.33397736  0.64203145  0.42936763     0.35000
H306        H  0.31767705  0.59974428  0.55547850     0.26800
H307        H  0.43775623  0.65980993  0.44713759     0.32700
H308        H  0.39931650  0.72721151  0.38269718     0.38600
H309        H  0.25352627  0.67115008  0.58868953     0.33100
H310        H  0.21340791  0.75798413  0.50581108     0.31900
H311        H  0.25501158  0.79858823  0.46552659     0.33600
H312        H  0.34898410  0.78063244  0.38832771     0.32600
H313        H  0.34005149  0.72597248  0.58231927     0.36600
H314        H  0.42359653  0.79102490  0.55763220     0.29300
H315        H  0.22265764  0.57052656  0.42936048     0.33600
H316        H  0.30332595  0.67055317  0.38894388     0.36400
H317        H  0.20452301  0.71466567  0.51504253     0.29000
H318        H  0.44706428  0.81853896  0.53346312     0.41900
H319        H  0.39372281  0.61489901  0.52634117     0.31900
H320        H  0.35128117  0.63547942  0.56797862     0.39600
H321        H  0.33377480  0.79444757  0.41625085     0.31400
H322        H  0.40155042  0.62963856  0.43240129     0.31500
H323        H  0.25139824  0.60138514  0.40936741     0.31700
N324        N  0.27228431  0.04804019  0.60023020    -0.02800
C325        C  0.23976182  0.05262217  0.61064964    -0.00200
C326        C  0.23909121  0.08890747  0.60304369    -0.23100
C327        C  0.27223810  0.10727678  0.58794970    -0.23300
C328        C  0.29213432  0.08165032  0.58657297    -0.00300
H329        H  0.21794931  0.10173258  0.60952699     0.13500
H330        H  0.28168574  0.13681207  0.58007650     0.13600
N331        N  0.03177981  0.29634612  0.61328758    -0.02800
C332        C  0.03588299  0.26234436  0.62186959    -0.00200
C333        C  0.07338715  0.26426965  0.61786499    -0.23100
C334        C  0.09316398  0.30006810  0.60658543    -0.23300
C335        C  0.06747537  0.31955523  0.60418470    -0.00300
H336        H  0.08533560  0.24223425  0.62336462     0.13500
H337        H  0.12351246  0.31133623  0.60151975     0.13600
N338        N  0.97238925  0.73941198  0.39932155    -0.02800
C339        C  0.93822270  0.72062369  0.41245195    -0.00200
C340        C  0.91412018  0.74194477  0.41072272    -0.23100
C341        C  0.93392253  0.77514477  0.39627600    -0.23300
C342        C  0.96938442  0.77293919  0.38928465    -0.00300
H343        H  0.88494128  0.73376750  0.41860750     0.13500
H344        H  0.92306743  0.79783159  0.39034951     0.13600
N345        N  0.28590388  0.26261080  0.39412707    -0.02800
C346        C  0.25442252  0.23202743  0.38479444    -0.00200
C347        C  0.22096161  0.23629341  0.39479640    -0.23100
C348        C  0.23105029  0.27094031  0.40935014    -0.23300
C349        C  0.27062078  0.28652918  0.40902361    -0.00300
H350        H  0.19193591  0.21845133  0.38885633     0.13500
H351        H  0.21140188  0.28430999  0.41813518     0.13600
N352        N  0.69768337  0.99060739  0.33316941    -0.02800
C353        C  0.71701925  0.99096302  0.30810403    -0.00200
C354        C  0.69155039  0.96805645  0.28786318    -0.23100
C355        C  0.65685822  0.95073150  0.30109838    -0.23300
C356        C  0.66136945  0.96454593  0.32882642    -0.00300
H357        H  0.69851197  0.96154785  0.26633391     0.13500
H358        H  0.63141091  0.92945386  0.29173887     0.13600
C359        C  0.03371694  0.01484487  0.21185087     0.46200
H360        H  0.03444972  0.00900841  0.18888383    -0.02800
C361        C  0.03222141  0.03320469  0.26521524     0.46200
H362        H  0.03197705  0.04260404  0.28761452    -0.02800
C363        C  0.99557555  0.01968365  0.22069416    -0.16500
C364        C  0.03837810  0.98291303  0.23197473    -0.16300
C365        C  0.06619061  0.05353118  0.22002750    -0.16700
C366        C  0.99391272  0.02812573  0.24914860    -0.16700
C367        C  0.03884401  0.99397116  0.26105971    -0.16200
C368        C  0.06643684  0.06243902  0.24879827    -0.16500
C369        C  0.82758536  0.04441001  0.30532100    -0.04700
C370        C  0.83968229  0.01599497  0.29085997     0.09400
C371        C  0.81120225  0.97945111  0.28366054    -0.02100
C372        C  0.77298578  0.97028755  0.29326634    -0.00400
C373        C  0.75992582  0.99993950  0.30476143    -0.04000
C374        C  0.78782353  0.03763022  0.30989785     0.03000
C375        C  0.88176770  0.02314607  0.28361038     0.09900
C376        C  0.82068672  0.95110444  0.26561816     0.35700
C377        C  0.77627145  0.07059315  0.31759800     0.39200
C378        C  0.89852749  0.99555190  0.29156996    -0.04400
C379        C  0.93294808  0.99526745  0.27855476     0.02800
C380        C  0.95674818  0.02802097  0.26321390    -0.04000
C381        C  0.94216940  0.05835734  0.25816505    -0.00200
C382        C  0.90406343  0.05456814  0.26640000    -0.02800
C383        C  0.87942927  0.96605477  0.31233582     0.36500
C384        C  0.96580501  0.09309515  0.24357404     0.40100
C385        C  0.94042558  0.95888707  0.27860376     0.39200
C386        C  0.88751113  0.08209875  0.25579178     0.36200
C387        C  0.85585474  0.08069766  0.31572350     0.36900
C388        C  0.74736879  0.92967712  0.29148412     0.40100
N389        N  0.94417971  0.92868384  0.27922993    -0.38000
N390        N  0.86401959  0.94244326  0.32873198    -0.39600
N391        N  0.98435800  0.12127936  0.23221831    -0.37300
N392        N  0.87450127  0.10417692  0.24716414    -0.39700
N393        N  0.82802786  0.92832020  0.25133062    -0.39500
N394        N  0.72702407  0.89731670  0.29007818    -0.37100
N395        N  0.76835605  0.09799659  0.32306459    -0.38200
N396        N  0.87824759  0.10976563  0.32406404    -0.39800
C397        C  0.12807154  0.14051113  0.30248991    -0.04700
C398        C  0.16522280  0.13933903  0.29739281     0.09400
C399        C  0.17054022  0.11491018  0.27547302    -0.02100
C400        C  0.13884612  0.08973543  0.25996022    -0.00400
C401        C  0.10108288  0.09045071  0.26470212    -0.04000
C402        C  0.09636355  0.11680598  0.28600471     0.03000
C403        C  0.19851063  0.16261910  0.31594592     0.09900
C404        C  0.20904948  0.11530860  0.26918536     0.35700
C405        C  0.05913137  0.12052416  0.29070706     0.39200
C406        C  0.21016106  0.14450461  0.33849282    -0.04400
C407        C  0.23522656  0.16757160  0.35964586     0.02800
C408        C  0.25018327  0.20881195  0.35776500    -0.04000
C409        C  0.24312203  0.22613052  0.33269596    -0.00200
C410        C  0.21708392  0.20311501  0.31204693    -0.02800
C411        C  0.19466278  0.10223621  0.34077035     0.36500
C412        C  0.25816214  0.26839554  0.33002910     0.40100
C413        C  0.24095691  0.14946180  0.38547576     0.39200
C414        C  0.20759861  0.22135955  0.28757669     0.36200
C415        C  0.12249228  0.16598950  0.32501993     0.36900
C416        C  0.14619089  0.06161822  0.24074236     0.40100
N417        N  0.24486429  0.13511069  0.40632232    -0.38000
N418        N  0.18269524  0.06845670  0.34238338    -0.39600
N419        N  0.26978661  0.30204984  0.32755364    -0.37300
N420        N  0.19991997  0.23581992  0.26805126    -0.39700
N421        N  0.23972200  0.11570279  0.26407504    -0.39500
N422        N  0.15483348  0.03992401  0.22625878    -0.37100
N423        N  0.02964964  0.12398165  0.29456427    -0.38200
N424        N  0.11819151  0.18635111  0.34302547    -0.39800
C425        C  0.07179711  0.92714759  0.30836188    -0.04700
C426        C  0.03741480  0.90868785  0.32337944     0.09400
C427        C  0.01076707  0.92821362  0.32587528    -0.02100
C428        C  0.01598356  0.96185868  0.30984864    -0.00400
C429        C  0.04293951  0.97103414  0.28708172    -0.04000
C430        C  0.07535637  0.96015944  0.29173523     0.03000
C431        C  0.02861624  0.86978586  0.33714424     0.09900
C432        C  0.97819954  0.91401975  0.34510390     0.35700
C433        C  0.11343360  0.98809478  0.28720497     0.39200
C434        C  0.04420937  0.86669906  0.36385492    -0.04400
C435        C  0.02792777  0.83236999  0.37991439     0.02800
C436        C  0.99576444  0.80129283  0.36944818    -0.04000
C437        C  0.98222899  0.80338739  0.34177272    -0.00200
C438        C  0.99885604  0.83722968  0.32565271    -0.02800
C439        C  0.07467272  0.90003765  0.37593198     0.36500
C440        C  0.94843476  0.77226182  0.33100639     0.40100
C441        C  0.04179195  0.83088917  0.40834509     0.39200
C442        C  0.98251496  0.84037874  0.29840632     0.36200
C443        C  0.10393184  0.91371492  0.31105269     0.36900
C444        C  0.99970752  0.98996091  0.32119578     0.40100
N445        N  0.05317884  0.83038430  0.43104994    -0.38000
N446        N  0.09902383  0.92656675  0.38564927    -0.39600
N447        N  0.92134577  0.74748244  0.32267417    -0.37300
N448        N  0.96925996  0.84364269  0.27695135    -0.39700
N449        N  0.95201695  0.90252925  0.36022358    -0.39500
N450        N  0.98705537  0.01210245  0.33139508    -0.37100
N451        N  0.14497667  0.00908099  0.28583720    -0.38200
N452        N  0.12985340  0.90338335  0.31328752    -0.39800
C453        C  0.14049212  0.51364313  0.56953498    -0.04700
C454        C  0.14189281  0.47650723  0.56145983     0.09400
C455        C  0.16898052  0.47433047  0.54075640    -0.02100
C456        C  0.19413762  0.50863393  0.52813775    -0.00400
C457        C  0.19394682  0.54598978  0.53687815    -0.04000
C458        C  0.16682252  0.54826670  0.55766402     0.03000
C459        C  0.11655787  0.43933097  0.57531369     0.09900
C460        C  0.17189713  0.43658237  0.53314191     0.35700
C461        C  0.16582424  0.58628087  0.56660376     0.39200
C462        C  0.08640386  0.41159439  0.55984315    -0.04400
C463        C  0.06926885  0.37268320  0.56943670     0.02800
C464        C  0.08049031  0.36171307  0.59556765    -0.04000
C465        C  0.10926894  0.39036274  0.61180322    -0.00200
C466        C  0.12694920  0.42884910  0.60181575    -0.02800
C467        C  0.07428165  0.42285253  0.53329475     0.36500
C468        C  0.12234940  0.37974448  0.63827514     0.40100
C469        C  0.04374681  0.34315184  0.55068381     0.39200
C470        C  0.15724605  0.45722260  0.61827437     0.36200
C471        C  0.11200739  0.51610873  0.59009909     0.36900
C472        C  0.22112867  0.50509327  0.50678969     0.40100
N473        N  0.02420386  0.31991871  0.53503339    -0.38000
N474        N  0.06460357  0.43208236  0.51219284    -0.39600
N475        N  0.13302606  0.37126185  0.65926144    -0.37300
N476        N  0.18127597  0.47978125  0.63155789    -0.39700
N477        N  0.17421389  0.40644364  0.52726971    -0.39500
N478        N  0.24203895  0.50102035  0.48965097    -0.37100
N479        N  0.16530934  0.61676428  0.57366298    -0.38200
N480        N  0.08914485  0.51795536  0.60647997    -0.39800
C481        C  0.29067139  0.46493555  0.42437328    -0.04700
C482        C  0.30914468  0.44706237  0.44268646     0.09400
C483        C  0.32908332  0.46797927  0.46657045    -0.02100
C484        C  0.32850980  0.50559838  0.47318406    -0.00400
C485        C  0.31228693  0.52478206  0.45387406    -0.04000
C486        C  0.29418184  0.50440298  0.42901265     0.03000
C487        C  0.30644659  0.40565729  0.43730113     0.09900
C488        C  0.35033523  0.45072551  0.48431856     0.35700
C489        C  0.28092361  0.52428308  0.40739833     0.39200
C490        C  0.32546710  0.39590627  0.41377752    -0.04400
C491        C  0.31726916  0.35626809  0.40563024     0.02800
C492        C  0.29130223  0.32614333  0.42197093    -0.04000
C493        C  0.27729724  0.33646859  0.44811932    -0.00200
C494        C  0.28353623  0.37594503  0.45509791    -0.02800
C495        C  0.35217307  0.42694902  0.39724266     0.36500
C496        C  0.25419857  0.30657850  0.46725783     0.40100
C497        C  0.33333657  0.34762913  0.37919678     0.39200
C498        C  0.26437925  0.38579095  0.47972131     0.36200
C499        C  0.26751009  0.44250590  0.40099956     0.36900
C500        C  0.34241698  0.52297344  0.50083036     0.40100
N501        N  0.34711608  0.34277233  0.35788520    -0.38000
N502        N  0.37346138  0.45182519  0.38416665    -0.39600
N503        N  0.23540698  0.28347140  0.48283635    -0.37300
N504        N  0.24903361  0.39345606  0.49935343    -0.39700
N505        N  0.36751791  0.43705080  0.49829441    -0.39500
N506        N  0.35298924  0.53562949  0.52325318    -0.37100
N507        N  0.27092306  0.53993922  0.38968373    -0.38200
N508        N  0.24869308  0.42457678  0.38252233    -0.39800
C509        C  0.34780399  0.91638836  0.56528081    -0.04700
C510        C  0.31233196  0.91091265  0.57889025     0.09400
C511        C  0.28562380  0.87278709  0.58203806    -0.02100
C512        C  0.29306915  0.84055684  0.56959663    -0.00400
C513        C  0.32647874  0.84652545  0.55268133    -0.04000
C514        C  0.35484103  0.88438572  0.55194270     0.03000
C515        C  0.30060198  0.94545625  0.58550136     0.09900
C516        C  0.24952041  0.86708374  0.59670231     0.35700
C517        C  0.39032794  0.89103192  0.53628466     0.39200
C518        C  0.28549350  0.96112212  0.56347184    -0.04400
C519        C  0.27436807  0.99370255  0.56894568     0.02800
C520        C  0.27925829  0.01170606  0.59624342    -0.04000
C521        C  0.29255464  0.99493453  0.61865050    -0.00200
C522        C  0.30338388  0.96184699  0.61326210    -0.02800
C523        C  0.28120085  0.94343314  0.53511235     0.36500
C524        C  0.29444599  0.01119715  0.64719704     0.40100
C525        C  0.25524928  0.00702816  0.54696066     0.39200
C526        C  0.31752598  0.94473246  0.63610162     0.36200
C527        C  0.37617757  0.95546929  0.56391020     0.36900
C528        C  0.26622789  0.80125104  0.57431254     0.40100
N529        N  0.23879231  0.01630445  0.52946448    -0.38000
N530        N  0.27793445  0.92926235  0.51254438    -0.39600
N531        N  0.29567412  0.02352996  0.67022798    -0.37300
N532        N  0.32873879  0.93096760  0.65433847    -0.39700
N533        N  0.22070617  0.86273314  0.60830617    -0.39500
N534        N  0.24483309  0.77001198  0.57843553    -0.37100
N535        N  0.41884681  0.89644394  0.52400832    -0.38200
N536        N  0.39861655  0.98681299  0.56307146    -0.39800
C537        C  0.50853973  0.90026438  0.42054551    -0.04700
C538        C  0.53315426  0.88574417  0.40409481     0.09400
C539        C  0.52419930  0.84468384  0.40156872    -0.02100
C540        C  0.49168295  0.81874596  0.41543663    -0.00400
C541        C  0.46689797  0.83323910  0.43154763    -0.04000
C542        C  0.47530977  0.87408276  0.43386607     0.03000
C543        C  0.56737954  0.91281154  0.38805580     0.09900
C544        C  0.54795246  0.82879877  0.38402543     0.35700
C545        C  0.44845714  0.88900610  0.44840407     0.39200
C546        C  0.60496786  0.91410872  0.39429999    -0.04400
C547        C  0.63562085  0.93119660  0.37511254     0.02800
C548        C  0.63019548  0.95098385  0.35097471    -0.04000
C549        C  0.59330318  0.95273735  0.34613719    -0.00200
C550        C  0.56196477  0.93297237  0.36409479    -0.02800
C551        C  0.61179870  0.89609757  0.41986308     0.36500
C552        C  0.58690787  0.97343814  0.32190862     0.40100
C553        C  0.67103711  0.92348024  0.37816067     0.39200
C554        C  0.52372228  0.93180482  0.35697142     0.36200
C555        C  0.51678020  0.94211317  0.42326287     0.36900
C556        C  0.48414942  0.77683008  0.41355873     0.40100
N557        N  0.69865214  0.91595474  0.38017714    -0.38000
N558        N  0.61746540  0.88181484  0.44022015    -0.39600
N559        N  0.58118341  0.98964593  0.30260494    -0.37300
N560        N  0.49327676  0.93109144  0.35132101    -0.39700
N561        N  0.56692261  0.81602932  0.37016607    -0.39500
N562        N  0.47828940  0.74346801  0.41231339    -0.37100
N563        N  0.42666542  0.90080420  0.45961855    -0.38200
N564        N  0.52281332  0.97545912  0.42523695    -0.39800
C565        C  0.13947588  0.71579555  0.40194349    -0.04700
C566        C  0.10285281  0.68886829  0.40859292     0.09400
C567        C  0.09972723  0.65487075  0.42379923    -0.02100
C568        C  0.13283768  0.65038231  0.43536898    -0.00400
C569        C  0.16935143  0.67895378  0.43048757    -0.04000
C570        C  0.17260033  0.71064330  0.41251914     0.03000
C571        C  0.06853167  0.70099429  0.40545666     0.09900
C572        C  0.06211837  0.62580095  0.42889879     0.35700
C573        C  0.21003062  0.73928840  0.40599713     0.39200
C574        C  0.05176965  0.70099835  0.37871594    -0.04400
C575        C  0.02152891  0.71589052  0.37624406     0.02800
C576        C  0.00638742  0.72870470  0.40075026    -0.04000
C577        C  0.02374093  0.72912273  0.42736463    -0.00200
C578        C  0.05522437  0.71638364  0.42954552    -0.02800
C579        C  0.06590268  0.68603204  0.35374397     0.36500
C580        C  0.01021267  0.74404896  0.45256430     0.40100
C581        C  0.00626712  0.71779539  0.34843873     0.39200
C582        C  0.07522485  0.72061104  0.45643040     0.36200
C583        C  0.14289117  0.75049262  0.38602986     0.36900
C584        C  0.12897114  0.61883145  0.45470907     0.40100
N585        N  0.99492847  0.71873323  0.32578192    -0.38000
N586        N  0.07710099  0.67418966  0.33372536    -0.39600
N587        N  0.00037836  0.75611166  0.47307752    -0.37300
N588        N  0.09181655  0.72414429  0.47755924    -0.39700
N589        N  0.03205516  0.60255828  0.43277045    -0.39500
N590        N  0.12625990  0.59414122  0.47050346    -0.37100
N591        N  0.23974558  0.76236719  0.40085275    -0.38200
N592        N  0.14539958  0.77812725  0.37338629    -0.39800
C593        C  0.62974888  0.72162065  0.53704036    -0.04700
C594        C  0.60791105  0.73928073  0.55347608     0.09400
C595        C  0.62412851  0.76279029  0.57749717    -0.02100
C596        C  0.66264927  0.76997245  0.58441582    -0.00400
C597        C  0.68503245  0.75352197  0.56730944    -0.04000
C598        C  0.66845570  0.72901310  0.54382409     0.03000
C599        C  0.56834079  0.73486585  0.54463027     0.09900
C600        C  0.60141402  0.78043620  0.59460827     0.35700
C601        C  0.69173337  0.71331194  0.52572925     0.39200
C602        C  0.53645429  0.70655941  0.55731083    -0.04400
C603        C  0.49900964  0.70226305  0.54868803     0.02800
C604        C  0.49349028  0.72622559  0.52721360    -0.04000
C605        C  0.52557228  0.75540277  0.51523006    -0.00200
C606        C  0.56291674  0.75980342  0.52401553    -0.02800
C607        C  0.54253473  0.68230019  0.57940759     0.36500
C608        C  0.52036638  0.78052582  0.49349392     0.40100
C609        C  0.46622877  0.67422929  0.56265789     0.39200
C610        C  0.59590884  0.79017839  0.51206571     0.36200
C611        C  0.61262492  0.69683079  0.51265690     0.36900
C612        C  0.67939383  0.79484859  0.60894500     0.40100
N613        N  0.44023576  0.65206838  0.57413642    -0.38000
N614        N  0.54809204  0.66343363  0.59708152    -0.39600
N615        N  0.51666925  0.80097856  0.47626442    -0.37300
N616        N  0.62234033  0.81442202  0.50272293    -0.39700
N617        N  0.58332970  0.79448770  0.60828988    -0.39500
N618        N  0.69245627  0.81469574  0.62852966    -0.37100
N619        N  0.71028195  0.70094695  0.51111103    -0.38200
N620        N  0.59897186  0.67707180  0.49317483    -0.39800
C621        C  0.93370035  0.28972128  0.58751236    -0.04700
C622        C  0.93044759  0.32435834  0.59929329     0.09400
C623        C  0.95940106  0.34823468  0.61756001    -0.02100
C624        C  0.99169148  0.33774721  0.62370382    -0.00400
C625        C  0.99627844  0.30425707  0.61046098    -0.04000
C626        C  0.96700917  0.28058719  0.59208129     0.03000
C627        C  0.89875696  0.33746640  0.58936326     0.09900
C628        C  0.95670015  0.38449864  0.62901674     0.35700
C629        C  0.97272921  0.24984853  0.57463560     0.39200
C630        C  0.86422341  0.32911014  0.60502599    -0.04400
C631        C  0.83258397  0.33630900  0.59318126     0.02800
C632        C  0.83472164  0.34977392  0.56507640    -0.04000
C633        C  0.86975085  0.35972101  0.55000503    -0.00200
C634        C  0.90194906  0.35465932  0.56243119    -0.02800
C635        C  0.86071595  0.31137572  0.63264512     0.36500
C636        C  0.87209809  0.37339124  0.52111502     0.40100
C637        C  0.79757294  0.32914689  0.60959901     0.39200
C638        C  0.93816386  0.36590250  0.54708669     0.36200
C639        C  0.90341852  0.26446078  0.56927792     0.36900
C640        C  0.02039126  0.36212959  0.64321559     0.40100
N641        N  0.76980783  0.32399067  0.62282382    -0.38000
N642        N  0.85787563  0.29698658  0.65461439    -0.39600
N643        N  0.87384531  0.38400494  0.49798605    -0.37300
N644        N  0.96712679  0.37514188  0.53492530    -0.39700
N645        N  0.95468217  0.41359729  0.63798693    -0.39500
N646        N  0.04273951  0.38230962  0.65892909    -0.37100
N647        N  0.97565981  0.22597976  0.55904665    -0.38200
N648        N  0.87927876  0.24435235  0.55476574    -0.39800
C649        C  0.65985605  0.11002959  0.42385776    -0.04700
C650        C  0.69391847  0.11642342  0.40799700     0.09400
C651        C  0.72262479  0.15382665  0.40822482    -0.02100
C652        C  0.71761149  0.18471342  0.42450050    -0.00400
C653        C  0.68417011  0.17825282  0.44143519    -0.04000
C654        C  0.65476468  0.14089534  0.44035747     0.03000
C655        C  0.69762902  0.08516039  0.38819284     0.09900
C656        C  0.75672281  0.16078046  0.39068581     0.35700
C657        C  0.61887348  0.13432632  0.45544311     0.39200
C658        C  0.68318542  0.08214541  0.36038750    -0.04400
C659        C  0.68559861  0.05239935  0.34166370     0.02800
C660        C  0.70251283  0.02530710  0.35054863    -0.04000
C661        C  0.72018470  0.03069002  0.37739328    -0.00200
C662        C  0.71689627  0.05997197  0.39651474    -0.02800
C663        C  0.66591706  0.10987378  0.35110245     0.36500
C664        C  0.74354065  0.00786765  0.38464652     0.40100
C665        C  0.67228346  0.05065959  0.31267016     0.39200
C666        C  0.73275296  0.06394390  0.42487242     0.36200
C667        C  0.62983499  0.07172732  0.42253217     0.36900
C668        C  0.74535874  0.22397206  0.42154717     0.40100
N669        N  0.66224296  0.04972468  0.28939517    -0.38000
N670        N  0.65232788  0.13221216  0.34387868    -0.39600
N671        N  0.76324296  0.99074007  0.39063537    -0.37300
N672        N  0.74513056  0.06708416  0.44761221    -0.39700
N673        N  0.78375725  0.16609060  0.37658190    -0.39500
N674        N  0.76728413  0.25523170  0.41846296    -0.37100
N675        N  0.58984757  0.12899429  0.46698563    -0.38200
N676        N  0.60623684  0.04098137  0.42113107    -0.39800
C677        C  0.45700108  0.18583373  0.53935174    -0.04700
C678        C  0.44923795  0.14608702  0.54576931     0.09400
C679        C  0.47918910  0.13058282  0.54358804    -0.02100
C680        C  0.51662015  0.15480220  0.53546205    -0.00400
C681        C  0.52425855  0.19457630  0.52961001    -0.04000
C682        C  0.49419679  0.20983546  0.53119734     0.03000
C683        C  0.40951529  0.12175414  0.55548225     0.09900
C684        C  0.47191105  0.09007983  0.55032331     0.35700
C685        C  0.50148779  0.25062628  0.52492809     0.39200
C686        C  0.37870184  0.11203579  0.53615947    -0.04400
C687        C  0.34039372  0.09900367  0.54616875     0.02800
C688        C  0.33234144  0.09253601  0.57547996    -0.04000
C689        C  0.36326127  0.10097012  0.59472459    -0.00200
C690        C  0.40162941  0.11507915  0.58472885    -0.02800
C691        C  0.38668859  0.11730521  0.50594964     0.36500
C692        C  0.35593511  0.10023987  0.62509698     0.40100
C693        C  0.30981284  0.09593517  0.52646749     0.39200
C694        C  0.43312262  0.12472120  0.60472247     0.36200
C695        C  0.42685969  0.20253675  0.54194588     0.36900
C696        C  0.54750182  0.13914870  0.53385074     0.40100
N697        N  0.28608536  0.09470717  0.51041350    -0.38000
N698        N  0.39322991  0.12150239  0.48187899    -0.39600
N699        N  0.35062399  0.10096876  0.64936978    -0.37300
N700        N  0.45833935  0.13218160  0.62057616    -0.39700
N701        N  0.46695161  0.05792589  0.55586258    -0.39500
N702        N  0.57213493  0.12662070  0.53264300    -0.37100
N703        N  0.50650023  0.28302586  0.52008490    -0.38200
N704        N  0.40294093  0.21598441  0.54394935    -0.39800
C705        C  0.39122455  0.27394040  0.38727415    -0.04700
C706        C  0.40170874  0.27687961  0.41625445     0.09400
C707        C  0.37253059  0.26770756  0.43713043    -0.02100
C708        C  0.33382691  0.25888993  0.42928681    -0.00400
C709        C  0.32364981  0.26080517  0.40058746    -0.04000
C710        C  0.35216555  0.26469452  0.37944093     0.03000
C711        C  0.44299531  0.28693362  0.42514782     0.09900
C712        C  0.38244079  0.26734086  0.46682689     0.35700
C713        C  0.34158777  0.25738675  0.34982870     0.39200
C714        C  0.46527204  0.32556149  0.43366071    -0.04400
C715        C  0.50281975  0.33435096  0.44459095     0.02800
C716        C  0.51846750  0.30415324  0.44797191    -0.04000
C717        C  0.49511208  0.26505698  0.43998757    -0.00200
C718        C  0.45837567  0.25696611  0.42797047    -0.02800
C719        C  0.44901974  0.35629818  0.43182791     0.36500
C720        C  0.50692656  0.23203695  0.44596032     0.40100
C721        C  0.52453998  0.37465173  0.45276396     0.39200
C722        C  0.43559188  0.21715566  0.41931555     0.36200
C723        C  0.42078757  0.28091975  0.36556797     0.36900
C724        C  0.30396674  0.24487875  0.45055255     0.40100
N725        N  0.54135654  0.40684891  0.45947935    -0.38000
N726        N  0.43613673  0.38090025  0.43059459    -0.39600
N727        N  0.51568164  0.20534346  0.45087026    -0.37300
N728        N  0.41759614  0.18538289  0.41237646    -0.39700
N729        N  0.39048837  0.26711874  0.49048510    -0.39500
N730        N  0.28034087  0.23259005  0.46759081    -0.37100
N731        N  0.33433311  0.25071230  0.32597305    -0.38200
N732        N  0.44447291  0.28664682  0.34828615    -0.39800
C733        C  0.87699460  0.54301756  0.47504242    -0.04700
C734        C  0.86441480  0.56745055  0.45809437     0.09400
C735        C  0.82543320  0.55590322  0.45037665    -0.02100
C736        C  0.79939374  0.51930506  0.45854318    -0.00400
C737        C  0.81219806  0.49381178  0.47441818    -0.04000
C738        C  0.85071586  0.50656330  0.48374375     0.03000
C739        C  0.89143257  0.60616166  0.44866826     0.09900
C740        C  0.81210776  0.58194467  0.43406105     0.35700
C741        C  0.86314936  0.48269601  0.50270412     0.39200
C742        C  0.90542990  0.61006002  0.42051569    -0.04400
C743        C  0.92193197  0.64752997  0.40881916     0.02800
C744        C  0.92614711  0.68145852  0.42571263    -0.04000
C745        C  0.91307924  0.67730427  0.45431719    -0.00200
C746        C  0.89658529  0.63977699  0.46587324    -0.02800
C747        C  0.90011428  0.57521580  0.40295568     0.36500
C748        C  0.91320404  0.71128400  0.47117392     0.40100
C749        C  0.92846745  0.65029343  0.37839619     0.39200
C750        C  0.88288749  0.63551695  0.49506629     0.36200
C751        C  0.91700394  0.55540104  0.48322244     0.36900
C752        C  0.75894789  0.50903803  0.45199734     0.40100
N753        N  0.93184440  0.65086091  0.35390824    -0.38000
N754        N  0.89577109  0.54742938  0.38894569    -0.39600
N755        N  0.91253536  0.73823535  0.48445591    -0.37300
N756        N  0.87216523  0.63194531  0.51839859    -0.39700
N757        N  0.80157834  0.60274378  0.42105284    -0.39500
N758        N  0.72674309  0.50151877  0.44696898    -0.37100
N759        N  0.87290571  0.46415644  0.51841613    -0.38200
N760        N  0.94901746  0.56545265  0.48958327    -0.39800
C761        C  0.68241817  0.56340055  0.54385720    -0.04700
C762        C  0.70407845  0.57984850  0.56835102     0.09400
C763        C  0.71720210  0.55584509  0.58533348    -0.02100
C764        C  0.70899119  0.51578800  0.57783325    -0.00400
C765        C  0.68989837  0.49973283  0.55194946    -0.04000
C766        C  0.67583880  0.52397951  0.53542586     0.03000
C767        C  0.71548314  0.62319250  0.57499292     0.09900
C768        C  0.74030176  0.57293400  0.61015666     0.35700
C769        C  0.65554539  0.50935794  0.50907260     0.39200
C770        C  0.69287229  0.63798146  0.59304018    -0.04400
C771        C  0.70304553  0.67895859  0.59802454     0.02800
C772        C  0.73672925  0.70580567  0.58554615    -0.04000
C773        C  0.75836458  0.69055243  0.56663235    -0.00200
C774        C  0.74807806  0.64970964  0.56170321    -0.02800
C775        C  0.65811064  0.61097822  0.60557089     0.36500
C776        C  0.78804207  0.71686995  0.54908069     0.40100
C777        C  0.67695939  0.69285807  0.61439709     0.39200
C778        C  0.76976054  0.63474421  0.54154343     0.36200
C779        C  0.66784717  0.58763452  0.52671714     0.36900
C780        C  0.71831997  0.49096969  0.59787087     0.40100
N781        N  0.65470530  0.70235119  0.62717076    -0.38000
N782        N  0.63024946  0.58962889  0.61554497    -0.39600
N783        N  0.81083514  0.73723881  0.53406978    -0.37300
N784        N  0.78642096  0.62228388  0.52530215    -0.39700
N785        N  0.75906711  0.58698947  0.62972233    -0.39500
N786        N  0.72526530  0.47185109  0.61470892    -0.37100
N787        N  0.63911424  0.49833481  0.48803466    -0.38200
N788        N  0.65611647  0.60680102  0.51297996    -0.39800
C789        C  0.86626118  0.99485305  0.11724173    -0.04700
C790        C  0.86561808  0.00672305  0.14598481     0.09400
C791        C  0.83210845  0.01181297  0.15707500    -0.02100
C792        C  0.79916913  0.00402510  0.13987359    -0.00400
C793        C  0.79928773  0.99087632  0.11132589    -0.04000
C794        C  0.83343296  0.98697698  0.10005359     0.03000
C795        C  0.89897177  0.01017987  0.16509703     0.09900
C796        C  0.83029421  0.02187511  0.18694405     0.35700
C797        C  0.83386656  0.97167078  0.07127264     0.39200
C798        C  0.93293219  0.04323150  0.16418351    -0.04400
C799        C  0.96499999  0.04527979  0.18097630     0.02800
C800        C  0.96304218  0.01505970  0.20004805    -0.04000
C801        C  0.92956867  0.98085855  0.19942080    -0.00200
C802        C  0.89778304  0.97868015  0.18231856    -0.02800
C803        C  0.93491419  0.07505705  0.14557279     0.36500
C804        C  0.92914177  0.94554420  0.21291775     0.40100
C805        C  0.00035275  0.07793099  0.17716401     0.39200
C806        C  0.86421261  0.94307936  0.18139753     0.36200
C807        C  0.89970357  0.98748343  0.10599272     0.36900
C808        C  0.76404473  0.00523391  0.15286799     0.40100
N809        N  0.02772142  0.10448117  0.17249623    -0.38000
N810        N  0.93638523  0.10034150  0.13067145    -0.39600
N811        N  0.92763463  0.91561770  0.22159485    -0.37300
N812        N  0.83752336  0.91464514  0.18053444    -0.39700
N813        N  0.82793610  0.02915349  0.21082569    -0.39500
N814        N  0.73660617  0.00611173  0.16430986    -0.37100
N815        N  0.83393672  0.95928780  0.04836352    -0.38200
N816        N  0.92618042  0.98119341  0.09704893    -0.39800
C817        C  0.97212984  0.79206656  0.21286056    -0.04700
C818        C  0.01034346  0.81733346  0.20857156     0.09400
C819        C  0.03893832  0.80107221  0.20208764    -0.02100
C820        C  0.03079736  0.76045497  0.20417590    -0.00400
C821        C  0.99266531  0.73494466  0.20848478    -0.04000
C822        C  0.96311984  0.75112574  0.21190044     0.03000
C823        C  0.02071448  0.86093672  0.21162500     0.09900
C824        C  0.07666335  0.82613550  0.19261744     0.35700
C825        C  0.92315281  0.72596275  0.21444080     0.39200
C826        C  0.04785977  0.88255402  0.23193275    -0.04400
C827        C  0.06008025  0.92363095  0.23247080     0.02800
C828        C  0.03694401  0.94267580  0.22052924    -0.04000
C829        C  0.01272124  0.92185455  0.19762329    -0.00200
C830        C  0.00599688  0.88146177  0.19275842    -0.02800
C831        C  0.06557513  0.86299544  0.25075516     0.36500
C832        C  0.99744816  0.94098838  0.17685008     0.40100
C833        C  0.10114344  0.94359302  0.23270738     0.39200
C834        C  0.98505534  0.86108400  0.16780995     0.36200
C835        C  0.94176308  0.80802484  0.21783687     0.36900
C836        C  0.06243314  0.74598682  0.20420204     0.40100
N837        N  0.13429606  0.95712880  0.23159217    -0.38000
N838        N  0.07936623  0.84665074  0.26544630    -0.39600
N839        N  0.98545551  0.95474435  0.15902399    -0.37300
N840        N  0.96867142  0.84463446  0.14789665    -0.39700
N841        N  0.10660772  0.84611031  0.18481267    -0.39500
N842        N  0.08856946  0.73573673  0.20471715    -0.37100
N843        N  0.89119775  0.70631106  0.21664936    -0.38200
N844        N  0.91737922  0.82054702  0.22151059    -0.39800
C845        C  0.14552858  0.08250990  0.16197233    -0.04700
C846        C  0.15650528  0.12360357  0.16222268     0.09400
C847        C  0.13656907  0.14169403  0.18025870    -0.02100
C848        C  0.10707551  0.11914289  0.19861887    -0.00400
C849        C  0.09562359  0.07756499  0.19850291    -0.04000
C850        C  0.11405693  0.05950489  0.17863144     0.03000
C851        C  0.18850630  0.14836938  0.14328693     0.09900
C852        C  0.14666674  0.18398435  0.18005480     0.35700
C853        C  0.10321227  0.01728627  0.17613905     0.39200
C854        C  0.18355626  0.14811852  0.11355873    -0.04400
C855        C  0.20813694  0.17899152  0.09722330     0.02800
C856        C  0.23664014  0.21135552  0.11066470    -0.04000
C857        C  0.24599873  0.20737031  0.13916357    -0.00200
C858        C  0.22207667  0.17576439  0.15536370    -0.02800
C859        C  0.15146697  0.11799111  0.09997037     0.36500
C860        C  0.27797789  0.23715429  0.15283021     0.40100
C861        C  0.20008195  0.18050539  0.06723494     0.39200
C862        C  0.23031007  0.17279179  0.18509187     0.36200
C863        C  0.16821112  0.06394906  0.14570502     0.36900
C864        C  0.08755535  0.13935682  0.21653859     0.40100
N865        N  0.19322632  0.18170242  0.04341672    -0.38000
N866        N  0.12621697  0.09389386  0.08883532    -0.39600
N867        N  0.30350335  0.25979721  0.16472501    -0.37300
N868        N  0.23658182  0.17026478  0.20884823    -0.39700
N869        N  0.15498722  0.21770961  0.17999808    -0.39500
N870        N  0.07247316  0.15649082  0.23033408    -0.37100
N871        N  0.09555575  0.98379840  0.17316167    -0.38200
N872        N  0.18654666  0.04920863  0.13297596    -0.39800
C873        C  0.15138373  0.48371985  0.98303717    -0.04700
C874        C  0.12858501  0.47638072  0.95829604     0.09400
C875        C  0.12626173  0.50852461  0.94323394    -0.02100
C876        C  0.15029644  0.54719038  0.95046338    -0.00400
C877        C  0.17596702  0.55436411  0.97362172    -0.04000
C878        C  0.17364169  0.52252949  0.99135004     0.03000
C879        C  0.10946619  0.43502383  0.94695497     0.09900
C880        C  0.09929921  0.50157351  0.91999753     0.35700
C881        C  0.19422448  0.52897733  0.01808932     0.39200
C882        C  0.07914810  0.40742947  0.96194455    -0.04400
C883        C  0.06485024  0.36749474  0.95295212     0.02800
C884        C  0.07962709  0.35502382  0.92806000    -0.04000
C885        C  0.10819150  0.38346156  0.91205396    -0.00200
C886        C  0.12315019  0.42292701  0.92153804    -0.02800
C887        C  0.06292907  0.42019077  0.98688533     0.36500
C888        C  0.12249556  0.37224042  0.88554903     0.40100
C889        C  0.03664565  0.33942404  0.97048265     0.39200
C890        C  0.15320735  0.45109973  0.90516790     0.36200
C891        C  0.15291660  0.45123234  0.99961705     0.36900
C892        C  0.14738020  0.57966968  0.93466645     0.40100
N893        N  0.01422063  0.31799659  0.98518330    -0.38000
N894        N  0.05007046  0.43042627  0.00680566    -0.39600
N895        N  0.13400091  0.36351046  0.86440838    -0.37300
N896        N  0.17680689  0.47366048  0.89193000    -0.39700
N897        N  0.07770008  0.49581202  0.90148721    -0.39500
N898        N  0.14465534  0.60549185  0.92214245    -0.37100
N899        N  0.20996622  0.53364988  0.03967394    -0.38200
N900        N  0.15393402  0.42542915  0.01303728    -0.39800
C901        C  0.28126715  0.42157306  0.09097351    -0.04700
C902        C  0.30103251  0.43270979  0.06503696     0.09400
C903        C  0.31215326  0.40519713  0.04888097    -0.02100
C904        C  0.30056444  0.36577989  0.05731523    -0.00400
C905        C  0.27983444  0.35425577  0.08296126    -0.04000
C906        C  0.27153762  0.38286650  0.10023542     0.03000
C907        C  0.30666912  0.47231781  0.05358646     0.09900
C908        C  0.33359301  0.41712785  0.02264162     0.35700
C909        C  0.25062186  0.37195864  0.12684829     0.39200
C910        C  0.33222609  0.50647310  0.06698924    -0.04400
C911        C  0.33409127  0.54374462  0.05808235     0.02800
C912        C  0.31204993  0.54699903  0.03478996    -0.04000
C913        C  0.28884524  0.51304332  0.01997511    -0.00200
C914        C  0.28469375  0.47578558  0.03016431    -0.02800
C915        C  0.35630594  0.50319290  0.09006739     0.36500
C916        C  0.27063786  0.51639991  0.99356095     0.40100
C917        C  0.35846549  0.57887626  0.07289224     0.39200
C918        C  0.25711262  0.44109412  0.01694634     0.36200
C919        C  0.26856863  0.44935686  0.10715254     0.36900
C920        C  0.30641778  0.33680046  0.03794341     0.40100
N921        N  0.37770983  0.60715985  0.08452740    -0.38000
N922        N  0.37551395  0.50053908  0.10848320    -0.39600
N923        N  0.25660987  0.51883965  0.97221148    -0.37300
N924        N  0.23507076  0.41343925  0.00643131    -0.39700
N925        N  0.35050043  0.42685387  0.00165984    -0.39500
N926        N  0.31104131  0.31437209  0.02176042    -0.37100
N927        N  0.23387592  0.36337979  0.14802481    -0.38200
N928        N  0.25850817  0.47174276  0.11977911    -0.39800
C929        C  0.32745593  0.99005341  0.88685493    -0.04700
C930        C  0.30866401  0.97735569  0.91296219     0.09400
C931        C  0.28364974  0.99567786  0.92438728    -0.02100
C932        C  0.27849480  0.02729203  0.91028344    -0.00400
C933        C  0.29774207  0.04026457  0.88439722    -0.04000
C934        C  0.32105234  0.02051544  0.87228891     0.03000
C935        C  0.31152355  0.94158141  0.92647617     0.09900
C936        C  0.26234174  0.98115391  0.95026223     0.35700
C937        C  0.33481493  0.02870478  0.84335307     0.39200
C938        C  0.34355017  0.94377456  0.94317906    -0.04400
C939        C  0.34634165  0.90947082  0.95491865     0.02800
C940        C  0.31700065  0.87274673  0.95016442    -0.04000
C941        C  0.28457137  0.87087496  0.93387830    -0.00200
C942        C  0.28215446  0.90501390  0.92183654    -0.02800
C943        C  0.37347619  0.98139275  0.94847360     0.36500
C944        C  0.25385186  0.83367834  0.92884424     0.40100
C945        C  0.37866648  0.91219106  0.97283341     0.39200
C946        C  0.24963972  0.90258456  0.90415578     0.36200
C947        C  0.35232850  0.97079407  0.87447314     0.36900
C948        C  0.25238405  0.04535139  0.92198969     0.40100
N949        N  0.40433178  0.91427381  0.98723925    -0.38000
N950        N  0.39745459  0.01133180  0.95280993    -0.39600
N951        N  0.22909722  0.80422533  0.92473074    -0.37300
N952        N  0.22391507  0.90104978  0.88999382    -0.39700
N953        N  0.24500728  0.96929643  0.97074281    -0.39500
N954        N  0.23092556  0.05882147  0.93173312    -0.37100
N955        N  0.34425281  0.03401839  0.81981291    -0.38200
N956        N  0.37231551  0.95555184  0.86465150    -0.39800
C957        C  0.14095812  0.72155987  0.10695987    -0.04700
C958        C  0.10586355  0.69025187  0.10338218     0.09400
C959        C  0.10265952  0.66136721  0.08203451    -0.02100
C960        C  0.13456547  0.66348217  0.06452869    -0.00400
C961        C  0.16983962  0.69496374  0.06804243    -0.04000
C962        C  0.17271817  0.72405716  0.08932569     0.03000
C963        C  0.07400365  0.68515481  0.12451665     0.09900
C964        C  0.06662422  0.62898921  0.07866405     0.35700
C965        C  0.20901620  0.75555157  0.09426629     0.39200
C966        C  0.04573598  0.70229023  0.12053232    -0.04400
C967        C  0.01692860  0.69844630  0.14146680     0.02800
C968        C  0.01563965  0.67633128  0.16590320    -0.04000
C969        C  0.04484924  0.66060449  0.17021157    -0.00200
C970        C  0.07367460  0.66474387  0.14960508    -0.02800
C971        C  0.04641662  0.72374421  0.09489021     0.36500
C972        C  0.04719277  0.64342543  0.19726660     0.40100
C973        C  0.99010809  0.71885982  0.13860279     0.39200
C974        C  0.10363825  0.64867465  0.15445783     0.36200
C975        C  0.14473902  0.75036621  0.12968093     0.36900
C976        C  0.13087723  0.63332671  0.04286581     0.40100
N977        N  0.96951529  0.73620161  0.13639031    -0.38000
N978        N  0.04698230  0.74065786  0.07429432    -0.39600
N979        N  0.04962249  0.63073537  0.21916528    -0.37300
N980        N  0.12766235  0.63601201  0.15825883    -0.39700
N981        N  0.03774928  0.60325021  0.07620570    -0.39500
N982        N  0.12770920  0.60906270  0.02570178    -0.37100
N983        N  0.23789420  0.78065794  0.09850169    -0.38200
N984        N  0.14766939  0.77310886  0.14794795    -0.39800
C985        C  0.54589871  0.88189076  0.01230206    -0.04700
C986        C  0.55014706  0.90798397  0.03581939     0.09400
C987        C  0.51693398  0.91123490  0.04898502    -0.02100
C988        C  0.48005453  0.88555551  0.04083988    -0.00400
C989        C  0.47592450  0.85717886  0.01883479    -0.04000
C990        C  0.50897646  0.85722570  0.00349678     0.03000
C991        C  0.58887530  0.92623385  0.04959424     0.09900
C992        C  0.52087615  0.93965500  0.07198701     0.35700
C993        C  0.50553603  0.83066900  0.97942031     0.39200
C994        C  0.61976159  0.95466641  0.03561490    -0.04400
C995        C  0.65772165  0.96482582  0.04595023     0.02800
C996        C  0.66470112  0.94850143  0.07129701    -0.04000
C997        C  0.63320893  0.92253231  0.08644612    -0.00200
C998        C  0.59581112  0.91083891  0.07535990    -0.02800
C999        C  0.61277378  0.97164742  0.00965286     0.36500
C1000       C  0.63941550  0.90616153  0.11300665     0.40100
C1001       C  0.68974921  0.98858634  0.02889955     0.39200
C1002       C  0.56483524  0.88051818  0.08944104     0.36200
C1003       C  0.57969142  0.87849088  0.99829059     0.36900
C1004       C  0.44633192  0.88832242  0.05523793     0.40100
N1005       N  0.71525165  0.00700239  0.01495910    -0.38000
N1006       N  0.60734159  0.98507102  0.98881788    -0.39600
N1007       N  0.64416461  0.89312291  0.13421409    -0.37300
N1008       N  0.54003476  0.85625227  0.10044615    -0.39700
N1009       N  0.52394957  0.96214334  0.09045633    -0.39500
N1010       N  0.41958048  0.89088892  0.06676613    -0.37100
N1011       N  0.50360961  0.81022648  0.95984766    -0.38200
N1012       N  0.60673688  0.87598266  0.98716738    -0.39800
C1013       C  0.59850668  0.74952652  0.87568034    -0.04700
C1014       C  0.56637620  0.71593237  0.88137662     0.09400
C1015       C  0.56598302  0.67860208  0.87214165    -0.02100
C1016       C  0.59766094  0.67489571  0.85707285    -0.00400
C1017       C  0.63017866  0.70834288  0.85191773    -0.04000
C1018       C  0.63032443  0.74583995  0.86091868     0.03000
C1019       C  0.53282661  0.72016277  0.89706433     0.09900
C1020       C  0.53272474  0.64414071  0.87783486     0.35700
C1021       C  0.66296357  0.78075646  0.85463471     0.39200
C1022       C  0.50349885  0.72763760  0.88217495    -0.04400
C1023       C  0.47176956  0.73163288  0.89704775     0.02800
C1024       C  0.46931393  0.72805671  0.92690738    -0.04000
C1025       C  0.49958100  0.72204580  0.94182051    -0.00200
C1026       C  0.53113030  0.71800677  0.92692038    -0.02800
C1027       C  0.50575753  0.73044446  0.85145068     0.36500
C1028       C  0.49864013  0.72079384  0.97267176     0.40100
C1029       C  0.44103690  0.73761927  0.88139564     0.39200
C1030       C  0.56183040  0.71135319  0.94225143     0.36200
C1031       C  0.59832642  0.78786388  0.88476471     0.36900
C1032       C  0.59633662  0.63702819  0.84584617     0.40100
N1033       N  0.41677110  0.74232064  0.86850583    -0.38000
N1034       N  0.50763499  0.73261184  0.82693360    -0.39600
N1035       N  0.49798554  0.72011975  0.99726634    -0.37300
N1036       N  0.58630136  0.70599820  0.95445438    -0.39700
N1037       N  0.50617739  0.61661070  0.88240019    -0.39500
N1038       N  0.59539403  0.60699348  0.83654355    -0.37100
N1039       N  0.68877562  0.80872052  0.84948545    -0.38200
N1040       N  0.59756409  0.81816997  0.89206876    -0.39800
C1041       C  0.46637090  0.18418800  0.95996304    -0.04700
C1042       C  0.45863727  0.19114936  0.93169130     0.09400
C1043       C  0.48354764  0.22454626  0.91784774    -0.02100
C1044       C  0.51718029  0.24921365  0.93139901    -0.00400
C1045       C  0.52411699  0.24336887  0.96014612    -0.04000
C1046       C  0.49781066  0.21125408  0.97458320     0.03000
C1047       C  0.42360309  0.16449913  0.91654886     0.09900
C1048       C  0.47425698  0.23374399  0.88963143     0.35700
C1049       C  0.50188166  0.20681728  0.00480276     0.39200
C1050       C  0.38673021  0.16278616  0.92568795    -0.04400
C1051       C  0.35411722  0.14146906  0.90961165     0.02800
C1052       C  0.35827091  0.12408455  0.88317084    -0.04000
C1053       C  0.39529239  0.12731088  0.87339610    -0.00200
C1054       C  0.42740376  0.14479692  0.89102070    -0.02800
C1055       C  0.38238963  0.18492402  0.95073430     0.36500
C1056       C  0.40121945  0.11649796  0.84432146     0.40100
C1057       C  0.31666001  0.14070313  0.91925134     0.39200
C1058       C  0.46470261  0.14384806  0.88238007     0.36200
C1059       C  0.44206320  0.14905976  0.97397514     0.36900
C1060       C  0.54552338  0.27911753  0.91505497     0.40100
N1061       N  0.28730613  0.14100874  0.92748251    -0.38000
N1062       N  0.37864778  0.20256021  0.97064301    -0.39600
N1063       N  0.40701273  0.10942278  0.82094284    -0.37300
N1064       N  0.49445790  0.14306178  0.87554290    -0.39700
N1065       N  0.46637548  0.24060988  0.86715373    -0.39500
N1066       N  0.56821741  0.30242812  0.90169169    -0.37100
N1067       N  0.50441594  0.20322299  0.02898617    -0.38200
N1068       N  0.42266856  0.12101810  0.98511176    -0.39800
C1069       C  0.36656457  0.27700743  0.06776918    -0.04700
C1070       C  0.39350208  0.30657418  0.08423458     0.09400
C1071       C  0.38021914  0.32472248  0.10682672    -0.02100
C1072       C  0.34033215  0.31593101  0.11124721    -0.00400
C1073       C  0.31304447  0.28728568  0.09404642    -0.04000
C1074       C  0.32668861  0.26657270  0.07315255     0.03000
C1075       C  0.43577337  0.31920472  0.07711755     0.09900
C1076       C  0.40778871  0.35233133  0.12562464     0.35700
C1077       C  0.30013008  0.23585362  0.05591115     0.39200
C1078       C  0.45400557  0.35418496  0.06229231    -0.04400
C1079       C  0.49317250  0.36521779  0.05425672     0.02800
C1080       C  0.51466620  0.34120499  0.06077026    -0.04000
C1081       C  0.49610300  0.30593362  0.07551517    -0.00200
C1082       C  0.45703630  0.29515831  0.08363975    -0.02800
C1083       C  0.43191328  0.37818888  0.05443075     0.36500
C1084       C  0.51629762  0.27930575  0.08121505     0.40100
C1085       C  0.51132815  0.40153737  0.03941665     0.39200
C1086       C  0.43823696  0.25850154  0.09797761     0.36200
C1087       C  0.38022882  0.25829117  0.04457401     0.36900
C1088       C  0.32756127  0.33607904  0.13395737     0.40100
N1089       N  0.52582288  0.43045534  0.02749526    -0.38000
N1090       N  0.41410512  0.39713913  0.04809795    -0.39600
N1091       N  0.53171967  0.25753593  0.08599643    -0.37300
N1092       N  0.42317864  0.22906407  0.10913009    -0.39700
N1093       N  0.42988580  0.37404502  0.14074651    -0.39500
N1094       N  0.31822312  0.35221750  0.15255244    -0.37100
N1095       N  0.28041060  0.21092792  0.04151416    -0.38200
N1096       N  0.39202037  0.24387341  0.02625694    -0.39800
C1097       C  0.69254872  0.57053138  0.94224878    -0.04700
C1098       C  0.67117465  0.56653795  0.91713623     0.09400
C1099       C  0.64365120  0.52942534  0.91010780    -0.02100
C1100       C  0.63901289  0.49624967  0.92715677    -0.00400
C1101       C  0.66101109  0.49991439  0.95230555    -0.04000
C1102       C  0.68666904  0.53823992  0.96011770     0.03000
C1103       C  0.67790952  0.60178120  0.89841843     0.09900
C1104       C  0.62018714  0.52540904  0.88502544     0.35700
C1105       C  0.70707616  0.54548210  0.98696504     0.39200
C1106       C  0.69551421  0.60384036  0.87145064    -0.04400
C1107       C  0.70069686  0.63638442  0.85380655     0.02800
C1108       C  0.69385772  0.67044197  0.86432353    -0.04000
C1109       C  0.67826487  0.66885110  0.89226867    -0.00200
C1110       C  0.66802730  0.63401527  0.90814181    -0.02800
C1111       C  0.70785769  0.57200669  0.86164296     0.36500
C1112       C  0.67196381  0.70253114  0.90520320     0.40100
C1113       C  0.70852839  0.63207026  0.82396635     0.39200
C1114       C  0.64574962  0.63068551  0.93415063     0.36200
C1115       C  0.72159479  0.60814359  0.94945545     0.36900
C1116       C  0.61241993  0.45846311  0.91779379     0.40100
N1117       N  0.71327068  0.62659536  0.80011170    -0.38000
N1118       N  0.71786011  0.54663908  0.85403630    -0.39600
N1119       N  0.66628350  0.72843580  0.91674226    -0.37300
N1120       N  0.62744779  0.62779268  0.95463926    -0.39700
N1121       N  0.60162256  0.52239846  0.86495188    -0.39500
N1122       N  0.59095951  0.42887111  0.90943537    -0.37100
N1123       N  0.72362378  0.55176157  0.00824542    -0.38200
N1124       N  0.74473010  0.63816114  0.95507998    -0.39800
C1125       C  0.95801055  0.33294490  0.91116324    -0.04700
C1126       C  0.93084076  0.30857614  0.93001911     0.09400
C1127       C  0.93703318  0.27589315  0.94141943    -0.02100
C1128       C  0.97052266  0.26782439  0.93423503    -0.00400
C1129       C  0.99781775  0.29198664  0.91512577    -0.04000
C1130       C  0.99105881  0.32439220  0.90339317     0.03000
C1131       C  0.89601094  0.31777253  0.93864376     0.09900
C1132       C  0.91001151  0.25204094  0.96201360     0.35700
C1133       C  0.01805215  0.34922343  0.88333962     0.39200
C1134       C  0.86082462  0.29867081  0.92480471    -0.04400
C1135       C  0.82710790  0.30455435  0.93453656     0.02800
C1136       C  0.82855506  0.33026952  0.95803201    -0.04000
C1137       C  0.86444278  0.35083409  0.97090465    -0.00200
C1138       C  0.89787084  0.34423628  0.96143213    -0.02800
C1139       C  0.85942532  0.27248433  0.90071262     0.36500
C1140       C  0.86732967  0.37946309  0.99360413     0.40100
C1141       C  0.79094993  0.28257913  0.92094070     0.39200
C1142       C  0.93421765  0.36428359  0.97543150     0.36200
C1143       C  0.95269003  0.36779726  0.90069982     0.36900
C1144       C  0.97896829  0.23766023  0.94932232     0.40100
N1145       N  0.76262299  0.26444961  0.90964086    -0.38000
N1146       N  0.85856692  0.25172055  0.88148638    -0.39600
N1147       N  0.86970860  0.40226966  0.01172966    -0.37300
N1148       N  0.96313181  0.38031009  0.98670170    -0.39700
N1149       N  0.88859801  0.23325661  0.97859908    -0.39500
N1150       N  0.98538461  0.21408672  0.96225272    -0.37100
N1151       N  0.03894742  0.36926468  0.86704570    -0.38200
N1152       N  0.94878852  0.39591383  0.89264233    -0.39800
C1153       C  0.85023807  0.48290360  0.12096230    -0.04700
C1154       C  0.88315769  0.51143026  0.10949914     0.09400
C1155       C  0.88895607  0.51325267  0.07975272    -0.02100
C1156       C  0.86077350  0.48809233  0.06146908    -0.00400
C1157       C  0.82711661  0.46070548  0.07298377    -0.04000
C1158       C  0.82234389  0.45757443  0.10275132     0.03000
C1159       C  0.90753648  0.54355576  0.12858299     0.09900
C1160       C  0.92311131  0.54219493  0.06802823     0.35700
C1161       C  0.78750812  0.42992619  0.11469378     0.39200
C1162       C  0.93292814  0.53678616  0.14809275    -0.04400
C1163       C  0.95059029  0.56531249  0.16932566     0.02800
C1164       C  0.94408270  0.60129708  0.17022373    -0.04000
C1165       C  0.91874731  0.60789885  0.15055698    -0.00200
C1166       C  0.90067278  0.57923144  0.12981234    -0.02800
C1167       C  0.93976065  0.49993526  0.14675915     0.36500
C1168       C  0.90837845  0.64271279  0.15315717     0.40100
C1169       C  0.97355189  0.55656270  0.19098399     0.39200
C1170       C  0.87317219  0.58551523  0.11064405     0.36200
C1171       C  0.84400444  0.48125532  0.15152554     0.36900
C1172       C  0.86606474  0.49088330  0.03089622     0.40100
N1173       N  0.99122461  0.54857567  0.20829076    -0.38000
N1174       N  0.94506341  0.47045844  0.14559991    -0.39600
N1175       N  0.89921935  0.66992626  0.15517760    -0.37300
N1176       N  0.85117804  0.59032816  0.09535907    -0.39700
N1177       N  0.95025751  0.56536879  0.05859468    -0.39500
N1178       N  0.87048952  0.49324582  0.00651279    -0.37100
N1179       N  0.75970962  0.40806497  0.12433393    -0.38200
N1180       N  0.83927137  0.48014754  0.17590852    -0.39800
C1181       C  0.76102694  0.08925747  0.06631913    -0.04700
C1182       C  0.73104886  0.09958878  0.07864917     0.09400
C1183       C  0.70491502  0.07341731  0.09719846    -0.02100
C1184       C  0.70716224  0.03608357  0.10187384    -0.00400
C1185       C  0.73565758  0.02437352  0.08803077    -0.04000
C1186       C  0.76333815  0.05192176  0.07085242     0.03000
C1187       C  0.72506092  0.13638275  0.06975583     0.09900
C1188       C  0.67490014  0.08448257  0.11088559     0.35700
C1189       C  0.79251751  0.04144781  0.05560992     0.39200
C1190       C  0.70832550  0.13710163  0.04316411    -0.04400
C1191       C  0.70540683  0.17215764  0.03328130     0.02800
C1192       C  0.71542341  0.20618528  0.05108323    -0.04000
C1193       C  0.73134905  0.20508935  0.07820937    -0.00200
C1194       C  0.73736198  0.17072355  0.08698383    -0.02800
C1195       C  0.69349641  0.10141538  0.02598935     0.36500
C1196       C  0.74004757  0.23836928  0.09778222     0.40100
C1197       C  0.69412790  0.17349198  0.00402924     0.39200
C1198       C  0.75634356  0.17049844  0.11368347     0.36200
C1199       C  0.78861264  0.11675761  0.04786161     0.36900
C1200       C  0.67973426  0.00990035  0.12094877     0.40100
N1201       N  0.68579521  0.17431453  0.98050332    -0.38000
N1202       N  0.68107651  0.07301585  0.01230120    -0.39600
N1203       N  0.74674346  0.26432214  0.11396935    -0.37300
N1204       N  0.77169667  0.16998304  0.13483170    -0.39700
N1205       N  0.65093927  0.09310171  0.12199828    -0.39500
N1206       N  0.65748804  0.98998367  0.13653972    -0.37100
N1207       N  0.81637725  0.03518557  0.04250510    -0.38200
N1208       N  0.81034660  0.13881602  0.03309844    -0.39800
C1209       C  0.82134397  0.77488000  0.79826524    -0.04700
C1210       C  0.82917461  0.80934372  0.81506770     0.09400
C1211       C  0.80811629  0.80784171  0.84044032    -0.02100
C1212       C  0.77622663  0.77381915  0.84695993    -0.00400
C1213       C  0.76468092  0.74101980  0.82785837    -0.04000
C1214       C  0.78980606  0.74081809  0.80481998     0.03000
C1215       C  0.85800608  0.84746690  0.80485306     0.09900
C1216       C  0.81830671  0.84216651  0.85915201     0.35700
C1217       C  0.78122313  0.70697769  0.78577407     0.39200
C1218       C  0.84555690  0.87460903  0.79076616    -0.04400
C1219       C  0.87243100  0.90792151  0.77776290     0.02800
C1220       C  0.91253160  0.91533435  0.77929311    -0.04000
C1221       C  0.92451632  0.88764052  0.79346374    -0.00200
C1222       C  0.89762096  0.85463212  0.80659808    -0.02800
C1223       C  0.80473628  0.86780142  0.78940664     0.36500
C1224       C  0.96416784  0.89052541  0.79298338     0.40100
C1225       C  0.85810057  0.93378884  0.76235407     0.39200
C1226       C  0.91066859  0.82724354  0.82152664     0.36200
C1227       C  0.84425154  0.77537076  0.77294320     0.36900
C1228       C  0.75434264  0.77437894  0.87246001     0.40100
N1229       N  0.84511587  0.95339997  0.75024102    -0.38000
N1230       N  0.77214221  0.86225841  0.78865900    -0.39600
N1231       N  0.99528377  0.89069221  0.79350217    -0.37300
N1232       N  0.92104375  0.80539677  0.83343111    -0.39700
N1233       N  0.82651679  0.86961731  0.87402832    -0.39500
N1234       N  0.73854604  0.77688699  0.89335337    -0.37100
N1235       N  0.77561793  0.68091195  0.76980083    -0.38200
N1236       N  0.86259428  0.77591112  0.75277291    -0.39800
C1237       C  0.00086932  0.14642163  0.87792700    -0.04700
C1238       C  0.98386415  0.14878857  0.85179579     0.09400
C1239       C  0.97761993  0.18364241  0.84530887    -0.02100
C1240       C  0.99335037  0.21777500  0.86266333    -0.00400
C1241       C  0.01339218  0.21662828  0.88789324    -0.04000
C1242       C  0.01453234  0.17973235  0.89622726     0.03000
C1243       C  0.97843061  0.11731349  0.82918744     0.09900
C1244       C  0.95708922  0.18482255  0.81951033     0.35700
C1245       C  0.03187095  0.17622678  0.92300131     0.39200
C1246       C  0.94877004  0.08064801  0.83095379    -0.04400
C1247       C  0.94535073  0.05094227  0.81005734     0.02800
C1248       C  0.97179872  0.05735206  0.78689276    -0.04000
C1249       C  0.00128674  0.09485722  0.78523252    -0.00200
C1250       C  0.00444160  0.12428384  0.80619301    -0.02800
C1251       C  0.92219657  0.07312501  0.85479570     0.36500
C1252       C  0.02997461  0.10453650  0.76294326     0.40100
C1253       C  0.91439329  0.01367836  0.81306175     0.39200
C1254       C  0.03576149  0.16180364  0.80465965     0.36200
C1255       C  0.00671309  0.11037039  0.88506691     0.36900
C1256       C  0.99202467  0.25428575  0.85233656     0.40100
N1257       N  0.88970903  0.98422808  0.81662235    -0.38000
N1258       N  0.90116028  0.06678485  0.87392631    -0.39600
N1259       N  0.05387531  0.11645405  0.74605774    -0.37300
N1260       N  0.06070814  0.19158668  0.80331165    -0.39700
N1261       N  0.94060108  0.18538387  0.79893215    -0.39500
N1262       N  0.99003739  0.28228290  0.84251109    -0.37100
N1263       N  0.04564485  0.17296971  0.94426926    -0.38200
N1264       N  0.01130132  0.08155132  0.89061456    -0.39800
C1265       C  0.11406895  0.02823472  0.80121637    -0.04700
C1266       C  0.11012754  0.00891372  0.82715781     0.09400
C1267       C  0.07355849  0.98648374  0.83697705    -0.02100
C1268       C  0.04100549  0.98009427  0.81963827    -0.00400
C1269       C  0.04516366  0.99535477  0.79134919    -0.04000
C1270       C  0.08177262  0.02297827  0.78410464     0.03000
C1271       C  0.14503367  0.01580722  0.84474931     0.09900
C1272       C  0.06959730  0.97058040  0.86534061     0.35700
C1273       C  0.08741944  0.04664810  0.75918383     0.39200
C1274       C  0.15834614  0.05011177  0.86173319    -0.04400
C1275       C  0.19787169  0.06777018  0.86702397     0.02800
C1276       C  0.22385824  0.04974972  0.85670713    -0.04000
C1277       C  0.20921978  0.01177660  0.84422905    -0.00200
C1278       C  0.16965822  0.99484310  0.83823679    -0.02800
C1279       C  0.13171405  0.06904722  0.87130706     0.36500
C1280       C  0.23469913  0.99156405  0.83480576     0.40100
C1281       C  0.21190430  0.10656853  0.88024071     0.39200
C1282       C  0.15470537  0.95720514  0.82346855     0.36200
C1283       C  0.15196398  0.05376884  0.79221496     0.36900
C1284       C  0.00419385  0.95951045  0.83267757     0.40100
N1285       N  0.22246419  0.13784561  0.89024536    -0.38000
N1286       N  0.11031968  0.08387871  0.87906251    -0.39600
N1287       N  0.25377840  0.97416302  0.82687992    -0.37300
N1288       N  0.14316589  0.92696654  0.81190469    -0.39700
N1289       N  0.06648159  0.95821126  0.88802348    -0.39500
N1290       N  0.97560794  0.94403321  0.84459364    -0.37100
N1291       N  0.09481530  0.06624155  0.73949487    -0.38200
N1292       N  0.18244247  0.07387775  0.78558138    -0.39800
C1293       C  0.87101161  0.82024070  0.63302635    -0.04700
C1294       C  0.85598111  0.82403315  0.66010584     0.09400
C1295       C  0.81814674  0.80047916  0.66694969    -0.02100
C1296       C  0.79333032  0.77830932  0.64537075    -0.00400
C1297       C  0.80699794  0.77809454  0.61706732    -0.04000
C1298       C  0.84698976  0.79611217  0.61191181     0.03000
C1299       C  0.87841526  0.85634888  0.67996841     0.09900
C1300       C  0.80398643  0.80172680  0.69576569     0.35700
C1301       C  0.86286587  0.79420775  0.58381715     0.39200
C1302       C  0.87282557  0.89274593  0.67975618    -0.04400
C1303       C  0.89547122  0.92428739  0.69712501     0.02800
C1304       C  0.92319432  0.91930540  0.71537005    -0.04000
C1305       C  0.93094112  0.88393714  0.71349498    -0.00200
C1306       C  0.90781520  0.85219573  0.69659602    -0.02800
C1307       C  0.84467460  0.89811182  0.66077830     0.36500
C1308       C  0.96583335  0.88176391  0.72528377     0.40100
C1309       C  0.89170764  0.96233310  0.69464097     0.39200
C1310       C  0.91533934  0.81571100  0.69524364     0.36200
C1311       C  0.91029607  0.84414344  0.62611987     0.36900
C1312       C  0.75294257  0.76101274  0.65205534     0.40100
N1313       N  0.88819322  0.99232221  0.69168238    -0.38000
N1314       N  0.82238473  0.90243482  0.64552540    -0.39600
N1315       N  0.99423506  0.87915973  0.73298851    -0.37300
N1316       N  0.92142746  0.78665443  0.69405195    -0.39700
N1317       N  0.79269522  0.80259916  0.71874200    -0.39500
N1318       N  0.72115436  0.74861992  0.65914913    -0.37100
N1319       N  0.87689478  0.79370912  0.56176015    -0.38200
N1320       N  0.94150534  0.86352108  0.62062928    -0.39800
C1321       C  0.97833966  0.15650181  0.64035333    -0.04700
C1322       C  0.97607796  0.15971181  0.67027524     0.09400
C1323       C  0.98505109  0.19752283  0.68289364    -0.02100
C1324       C  0.99908901  0.23151208  0.66599393    -0.00400
C1325       C  0.00724787  0.22818962  0.63671001    -0.04000
C1326       C  0.99710309  0.19008230  0.62420052     0.03000
C1327       C  0.97398267  0.12464479  0.68789368     0.09900
C1328       C  0.98320708  0.20165166  0.71355503     0.35700
C1329       C  0.01102949  0.18469289  0.59601240     0.39200
C1330       C  0.00374141  0.10914788  0.68499897    -0.04400
C1331       C  0.00195523  0.07482540  0.69914496     0.02800
C1332       C  0.97265688  0.05743969  0.71944468    -0.04000
C1333       C  0.94270517  0.07325055  0.72247886    -0.00200
C1334       C  0.94308325  0.10609793  0.70646405    -0.02800
C1335       C  0.03743570  0.12949684  0.66785014     0.36500
C1336       C  0.91026480  0.05481251  0.74097788     0.40100
C1337       C  0.03255985  0.05998358  0.69325002     0.39200
C1338       C  0.91154117  0.12069200  0.70899597     0.36200
C1339       C  0.96545058  0.11791425  0.62670750     0.36900
C1340       C  0.00981840  0.26992372  0.67961281     0.40100
N1341       N  0.05863616  0.05151927  0.68645294    -0.38000
N1342       N  0.06423302  0.14558836  0.65422612    -0.39600
N1343       N  0.88395293  0.04051955  0.75550948    -0.37300
N1344       N  0.88643448  0.13245320  0.71115297    -0.39700
N1345       N  0.98183428  0.20489103  0.73804825    -0.39500
N1346       N  0.01840307  0.30033202  0.69090894    -0.37100
N1347       N  0.02295734  0.18005224  0.57386993    -0.38200
N1348       N  0.95517601  0.08700175  0.61608298    -0.39800
C1349       C  0.08093097  0.98000216  0.67615725    -0.04700
C1350       C  0.11555703  0.98312103  0.68953177     0.09400
C1351       C  0.11388022  0.97269535  0.71834138    -0.02100
C1352       C  0.07916024  0.96477083  0.73418856    -0.00400
C1353       C  0.04696129  0.97158432  0.72230082    -0.04000
C1354       C  0.04637389  0.96990271  0.69193280     0.03000
C1355       C  0.15273354  0.99590116  0.67273132     0.09900
C1356       C  0.14764752  0.96937948  0.73149105     0.35700
C1357       C  0.01125259  0.95175632  0.67611670     0.39200
C1358       C  0.18144694  0.03252672  0.67874033    -0.04400
C1359       C  0.21284127  0.04789020  0.66002544     0.02800
C1360       C  0.21386880  0.02914089  0.63343867    -0.04000
C1361       C  0.18633530  0.99151627  0.62802329    -0.00200
C1362       C  0.15736088  0.97405383  0.64845705    -0.02800
C1363       C  0.17746729  0.05625368  0.70291486     0.36500
C1364       C  0.18518883  0.97196683  0.60069063     0.40100
C1365       C  0.24345889  0.08421434  0.66767321     0.39200
C1366       C  0.13110802  0.93421206  0.64387068     0.36200
C1367       C  0.08072836  0.98884547  0.64622958     0.36900
C1368       C  0.07525970  0.94288408  0.75990096     0.40100
N1369       N  0.26790762  0.11307556  0.67384525    -0.38000
N1370       N  0.17498885  0.07617485  0.72181437    -0.39600
N1371       N  0.18279914  0.95557151  0.57900434    -0.37300
N1372       N  0.11029412  0.90237254  0.64021333    -0.39700
N1373       N  0.17468873  0.96690493  0.74194304    -0.39500
N1374       N  0.07375112  0.92489033  0.78006542    -0.37100
N1375       N  0.98386727  0.93725759  0.66267616    -0.38200
N1376       N  0.08064013  0.99621313  0.62244668    -0.39800
loop_ 
_geom_bond_atom_site_label_1 
_geom_bond_atom_site_label_2 
_geom_bond_distance 
_geom_bond_site_symmetry_2 
_ccdc_geom_bond_type 
C1            H2   1.094       .  S
C1            C7   1.530       .  S
C1            C6   1.557   1_565  S
C1            C5   1.577   1_655  S
C3            H4   1.093       .  S
C3            C9   1.543   1_565  S
C3            C8   1.552   1_655  S
C3           C10   1.560       .  S
C5            C8   1.414       .  D
C5         C1353   1.563       .  S
C6            C9   1.379       .  D
C6         C1332   1.530       .  S
C7           C10   1.369       .  D
C7         C1304   1.496       .  S
C8         C1269   1.533       .  S
C9         C1248   1.520       .  S
C10        C1220   1.524       .  S
Zr11         O12   2.439       .  S
Zr11         O13   2.444   1_554  S
Zr11         O14   2.456       .  S
Zr11         O17   2.423       .  S
Zr11         O19   2.374   1_554  S
Zr11         O20   2.385   1_554  S
Zr11         O21   2.407       .  S
Zr11         O22   2.408       .  S
O12          H68   0.990       .  S
O12          H76   0.989       .  S
O13          C33   1.286       .  A
O14          C35   1.287       .  A
O15         Zr25   2.431       .  S
O15          C34   1.282       .  A
O16         Zr24   2.436       .  S
O16          C35   1.286       .  A
O17          C34   1.281       .  A
O18         Zr26   2.416       .  S
O18          C33   1.280       .  A
O19         Zr24   2.391   1_556  S
O19         Zr26   2.381       .  S
O20         Zr25   2.396   1_556  S
O20         Zr26   2.382       .  S
O20          H55   0.965       .  S
O21         Zr24   2.394       .  S
O21         Zr41   2.407       .  S
O21          H58   0.966       .  S
O22         Zr25   2.390       .  S
O22         Zr41   2.396       .  S
Zr23         O48   2.437       .  S
Zr23         O42   2.454   1_556  S
Zr23         O50   2.507       .  S
Zr23         O38   2.454       .  S
Zr23         O29   2.400       .  S
Zr23         O30   2.422       .  S
Zr23         O31   2.387   1_556  S
Zr23         O32   2.391   1_556  S
Zr24         O43   2.434       .  S
Zr24         O36   2.433   1_554  S
Zr24         O37   2.422   1_554  S
Zr24         O30   2.411   1_554  S
Zr24         O31   2.389       .  S
Zr25         O27   2.437       .  S
Zr25         O49   2.440   1_554  S
Zr25         O51   2.416   1_554  S
Zr25         O29   2.388   1_554  S
Zr25         O32   2.407       .  S
Zr26         O52   2.434       .  S
Zr26         O53   2.435       .  S
Zr26         O28   2.433       .  S
Zr26         O29   2.387       .  S
Zr26         O30   2.390       .  S
O27          H64   0.990       .  S
O28          H59   0.990       .  S
O28          H73   0.990       .  S
O30          H56   0.965       .  S
O31         Zr41   2.368       .  S
O32         Zr41   2.388       .  S
O32          H57   0.958       .  S
C33        C1136   1.492       .  S
C34        C1157   1.475       .  S
C35        C1192   1.502       .  S
O36          H72   0.990       .  S
O37          C39   1.283       .  A
O38          C39   1.288       .  A
C39        C1045   1.490       .  S
O40         Zr41   2.435       .  S
O40          H69   0.990       .  S
Zr41         O44   2.435       .  S
Zr41         O45   2.438       .  S
Zr41         O46   2.427       .  S
O42          C47   1.287       .  A
O43          H60   0.989       .  S
O43          H75   0.990       .  S
O44          H61   0.990       .  S
O45          H65   0.990       .  S
O45          H74   0.990       .  S
O46          C47   1.282       .  A
C47        C1080   1.503       .  S
O48          H67   0.990       .  S
O48          H71   0.990       .  S
O49          H63   0.990   1_556  S
O49          H70   0.990       .  S
O50          C54   1.298       .  A
O51          C54   1.282       .  A
O52          H62   0.990       .  S
O53          H66   0.990       .  S
C54        C1101   1.527       .  S
N77          C81   1.366       .  A
N77          C78   1.378       .  A
N77        C1108   1.472       .  S
C78        C1213   1.508       .  S
C78          C79   1.387       .  A
C79          C80   1.359       .  A
C79          H82   1.083       .  S
C80          C81   1.374       .  A
C80          H83   1.082       .  S
C81        C1017   1.483       .  S
Zr84         O85   2.437       .  S
Zr84         O86   2.421       .  S
Zr84         O87   2.443       .  S
Zr84         O90   2.432       .  S
Zr84         O92   2.377   1_554  S
Zr84         O93   2.383   1_554  S
Zr84         O94   2.406       .  S
Zr84         O95   2.404       .  S
O85         H141   0.990       .  S
O85         H149   0.990       .  S
O86         C106   1.282   1_554  A
O87         C108   1.286       .  A
O88         Zr98   2.419   1_554  S
O88         C107   1.281       .  A
O89         Zr97   2.437       .  S
O89         C108   1.286       .  A
O90         C107   1.284       .  A
O91         Zr99   2.457       .  S
O91         C106   1.290       .  A
O92         Zr97   2.387   1_556  S
O92         Zr99   2.374       .  S
O93         Zr98   2.375       .  S
O93         Zr99   2.366       .  S
O93         H128   0.966       .  S
O94         Zr97   2.391       .  S
O94        Zr114   2.401       .  S
O94         H131   0.967       .  S
O95         Zr98   2.388   1_554  S
O95        Zr114   2.396       .  S
Zr96        O121   2.438       .  S
Zr96        O115   2.447       .  S
Zr96        O123   2.459       .  S
Zr96        O111   2.465       .  S
Zr96        O102   2.414       .  S
Zr96        O103   2.410       .  S
Zr96        O104   2.384   1_556  S
Zr96        O105   2.388   1_556  S
Zr97        O116   2.433       .  S
Zr97        O109   2.433   1_554  S
Zr97        O110   2.419   1_554  S
Zr97        O103   2.396   1_554  S
Zr97        O104   2.396       .  S
Zr98        O100   2.434   1_556  S
Zr98        O122   2.439       .  S
Zr98        O124   2.401       .  S
Zr98        O102   2.392       .  S
Zr98        O105   2.389   1_556  S
Zr99        O125   2.435       .  S
Zr99        O126   2.436       .  S
Zr99        O101   2.435       .  S
Zr99        O102   2.404       .  S
Zr99        O103   2.397       .  S
O100        H137   0.990   1_554  S
O101        H132   0.990       .  S
O101        H146   0.990       .  S
O103        H129   0.965       .  S
O104       Zr114   2.379       .  S
O105       Zr114   2.371       .  S
O105        H130   0.967       .  S
C106        C877   1.504       .  S
C107        C912   1.473       .  S
C108        C961   1.492       .  S
O109        H145   0.990       .  S
O110        C112   1.283       .  A
O111        C112   1.291       .  A
C112        C940   1.493       .  S
O113       Zr114   2.435       .  S
O113        H142   0.990       .  S
Zr114       O117   2.432       .  S
Zr114       O118   2.438       .  S
Zr114       O119   2.441       .  S
O115        C120   1.286   1_556  A
O116        H133   0.990       .  S
O116        H148   0.989       .  S
O117        H134   0.989       .  S
O118        H138   0.990       .  S
O118        H147   0.989       .  S
O119        C120   1.286       .  A
C120        C989   1.496       .  S
O121        H140   0.990       .  S
O121        H144   0.990       .  S
O122        H136   0.990       .  S
O122        H143   0.990       .  S
O123        C127   1.289       .  A
O124        C127   1.279       .  A
O125        H135   0.989       .  S
O126        H139   0.990       .  S
C127       C1024   1.483       .  S
N150        C154   1.369       .  A
N150        C151   1.373       .  A
N150       C1073   1.459       .  S
C151        C856   1.498       .  S
C151        C152   1.384       .  A
C152        C153   1.358       .  A
C152        H155   1.083       .  S
C153        C154   1.378       .  A
C153        H156   1.083       .  S
C154        C905   1.491       .  S
N157        C161   1.358       .  A
N157        C158   1.356       .  A
N157        C933   1.446       .  S
C158       C1276   1.486       .  S
C158        C159   1.385       .  A
C159        C160   1.373       .  A
C159        H162   1.082       .  S
C160        C161   1.379       .  A
C160        H163   1.082       .  S
C161       C1052   1.483       .  S
N164        C168   1.358       .  A
N164        C165   1.355       .  A
N164        C968   1.447   1_655  S
C165       C1164   1.483       .  S
C165        C166   1.379       .  A
C166        C167   1.376       .  A
C166        H169   1.082       .  S
C167        C168   1.387       .  A
C167        H170   1.082       .  S
C168        C821   1.495       .  S
N171        C175   1.369       .  A
N171        C172   1.371       .  A
N171       C1129   1.449   1_455  S
C172       C1241   1.510       .  S
C172        C173   1.384       .  A
C173        C174   1.369       .  A
C173        H176   1.082       .  S
C174        C175   1.381       .  A
C174        H177   1.082       .  S
C175        C884   1.506       .  S
N178        C182   1.369       .  A
N178        C179   1.370       .  A
N178       C1185   1.457   1_565  S
C179        C793   1.497       .  S
C179        C180   1.382       .  A
C180        C181   1.364       .  A
C180        H183   1.082       .  S
C181        C182   1.380       .  A
C181        H184   1.083       .  S
C182        C996   1.496       .  S
Zr185       O186   2.441       .  S
Zr185       O187   2.441       .  S
Zr185       O188   2.455       .  S
Zr185       O191   2.433       .  S
Zr185       O193   2.384       .  S
Zr185       O194   2.385       .  S
Zr185       O195   2.405       .  S
Zr185       O196   2.405       .  S
O186        H242   0.990       .  S
O186        H250   0.990       .  S
O187        C207   1.285       .  A
O188        C209   1.287       .  A
O189       Zr199   2.456       .  S
O189        C208   1.289       .  A
O190       Zr198   2.433       .  S
O190        C209   1.285       .  A
O191        C208   1.285       .  A
O192       Zr200   2.428       .  S
O192        C207   1.282       .  A
O193       Zr198   2.394       .  S
O193       Zr200   2.382       .  S
O194       Zr199   2.378       .  S
O194       Zr200   2.365       .  S
O194        H229   0.963       .  S
O195       Zr198   2.400       .  S
O195       Zr215   2.387       .  S
O195        H232   0.964       .  S
O196       Zr199   2.403       .  S
O196       Zr215   2.399       .  S
Zr197       O222   2.432       .  S
Zr197       O216   2.436       .  S
Zr197       O224   2.454       .  S
Zr197       O212   2.454       .  S
Zr197       O203   2.409       .  S
Zr197       O204   2.407       .  S
Zr197       O205   2.384       .  S
Zr197       O206   2.386       .  S
Zr198       O217   2.436       .  S
Zr198       O210   2.435       .  S
Zr198       O211   2.424       .  S
Zr198       O204   2.394       .  S
Zr198       O205   2.398       .  S
Zr199       O201   2.432       .  S
Zr199       O223   2.436       .  S
Zr199       O225   2.455       .  S
Zr199       O203   2.400       .  S
Zr199       O206   2.384       .  S
Zr200       O226   2.437       .  S
Zr200       O227   2.435       .  S
Zr200       O202   2.437       .  S
Zr200       O203   2.404       .  S
Zr200       O204   2.390       .  S
O201        H238   0.990       .  S
O202        H233   0.990       .  S
O202        H247   0.990       .  S
O204        H230   0.965       .  S
O205       Zr215   2.377       .  S
O206       Zr215   2.375       .  S
O206        H231   0.966       .  S
C207        C681   1.480       .  S
C208        C716   1.518       .  S
C209        C653   1.494       .  S
O210        H246   0.990       .  S
O211        C213   1.283       .  A
O212        C213   1.288       .  A
C213        C632   1.483       .  S
O214       Zr215   2.437       .  S
O214        H243   0.990       .  S
Zr215       O218   2.435       .  S
Zr215       O219   2.435       .  S
Zr215       O220   2.424       .  S
O216        C221   1.284       .  A
O217        H234   0.990       .  S
O217        H249   0.989       .  S
O218        H235   0.990       .  S
O219        H239   0.990       .  S
O219        H248   0.989       .  S
O220        C221   1.283       .  A
C221        C737   1.483       .  S
O222        H241   0.990       .  S
O222        H245   0.989       .  S
O223        H237   0.990       .  S
O223        H244   0.989       .  S
O224        C228   1.289       .  A
O225        C228   1.290       .  A
O226        H236   0.990       .  S
O227        H240   0.990       .  S
C228        C765   1.515       .  S
N251        C255   1.361       .  A
N251        C252   1.370       .  A
N251        C772   1.461       .  S
C252       C1297   1.493       .  S
C252        C253   1.385       .  A
C253        C254   1.360       .  A
C253        H256   1.083       .  S
C254        C255   1.376       .  A
C254        H257   1.082       .  S
C255        C597   1.474       .  S
Zr258       O259   2.436       .  S
Zr258       O260   2.450       .  S
Zr258       O261   2.453       .  S
Zr258       O264   2.462       .  S
Zr258       O266   2.383       .  S
Zr258       O267   2.383       .  S
Zr258       O268   2.415       .  S
Zr258       O269   2.398       .  S
O259        H315   0.990       .  S
O259        H323   0.990       .  S
O260        C280   1.287       .  A
O261        C282   1.289       .  A
O262       Zr272   2.402       .  S
O262        C281   1.280       .  A
O263       Zr271   2.395       .  S
O263        C282   1.278       .  A
O264        C281   1.290       .  A
O265       Zr273   2.443       .  S
O265        C280   1.286       .  A
O266       Zr271   2.393       .  S
O266       Zr273   2.365       .  S
O267       Zr272   2.397       .  S
O267       Zr273   2.378       .  S
O267        H302   0.964       .  S
O268       Zr271   2.395       .  S
O268       Zr288   2.404       .  S
O268        H305   0.967       .  S
O269       Zr272   2.380       .  S
O269       Zr288   2.382       .  S
Zr270       O295   2.440       .  S
Zr270       O289   2.465       .  S
Zr270       O297   2.457       .  S
Zr270       O285   2.444       .  S
Zr270       O276   2.404       .  S
Zr270       O277   2.418       .  S
Zr270       O278   2.382       .  S
Zr270       O279   2.383       .  S
Zr271       O290   2.435       .  S
Zr271       O283   2.431       .  S
Zr271       O284   2.418       .  S
Zr271       O277   2.396       .  S
Zr271       O278   2.376       .  S
Zr272       O274   2.436       .  S
Zr272       O296   2.438       .  S
Zr272       O298   2.406       .  S
Zr272       O276   2.380       .  S
Zr272       O279   2.393       .  S
Zr273       O299   2.436       .  S
Zr273       O300   2.436       .  S
Zr273       O275   2.438       .  S
Zr273       O276   2.393       .  S
Zr273       O277   2.407       .  S
O274        H311   0.990       .  S
O275        H306   0.990       .  S
O275        H320   0.990       .  S
O277        H303   0.964       .  S
O278       Zr288   2.378       .  S
O279       Zr288   2.391       .  S
O279        H304   0.967       .  S
C280        C457   1.500       .  S
C281        C569   1.488       .  S
C282        C485   1.487       .  S
O283        H319   0.990       .  S
O284        C286   1.280       .  A
O285        C286   1.284       .  A
C286        C604   1.480       .  S
O287       Zr288   2.436       .  S
O287        H316   0.990       .  S
Zr288       O291   2.436       .  S
Zr288       O292   2.439       .  S
Zr288       O293   2.408       .  S
O289        C294   1.289       .  A
O290        H307   0.990       .  S
O290        H322   0.990       .  S
O291        H308   0.991       .  S
O292        H312   0.990       .  S
O292        H321   0.989       .  S
O293        C294   1.279       .  A
C294        C541   1.492       .  S
O295        H314   0.991       .  S
O295        H318   0.990       .  S
O296        H310   0.990       .  S
O296        H317   0.990       .  S
O297        C301   1.289       .  A
O298        C301   1.281       .  A
O299        H309   0.990       .  S
O300        H313   0.990       .  S
C301        C513   1.491       .  S
N324        C328   1.361       .  A
N324        C325   1.360       .  A
N324        C520   1.442       .  S
C325       C1360   1.500       .  S
C325        C326   1.387       .  A
C326        C327   1.376       .  A
C326        H329   1.082       .  S
C327        C328   1.379       .  A
C327        H330   1.082       .  S
C328        C688   1.496       .  S
N331        C335   1.370       .  A
N331        C332   1.371       .  A
N331        C625   1.454   1_455  S
C332       C1325   1.505       .  S
C332        C333   1.382       .  A
C333        C334   1.370       .  A
C333        H336   1.082       .  S
C334        C335   1.382       .  A
C334        H337   1.082       .  S
C335        C464   1.505       .  S
N338        C342   1.361       .  A
N338        C339   1.362       .  A
N338        C576   1.450   1_655  S
C339        C744   1.489       .  S
C339        C340   1.380       .  A
C340        C341   1.368       .  A
C340        H343   1.082       .  S
C341        C342   1.383       .  A
C341        H344   1.082       .  S
C342        C436   1.488       .  S
N345        C349   1.370       .  A
N345        C346   1.371       .  A
N345        C709   1.464       .  S
C346        C408   1.488       .  S
C346        C347   1.381       .  A
C347        C348   1.354       .  A
C347        H350   1.083       .  S
C348        C349   1.379       .  A
C348        H351   1.082       .  S
C349        C492   1.495       .  S
N352        C356   1.366       .  A
N352        C353   1.370       .  A
N352        C660   1.446   1_565  S
C353        C373   1.519       .  S
C353        C354   1.389       .  A
C354        C355   1.370       .  A
C354        H357   1.082       .  S
C355        C356   1.377       .  A
C355        H358   1.082       .  S
C356        C548   1.505       .  S
C359        H360   1.097       .  S
C359        C365   1.545       .  S
C359        C364   1.575   1_545  S
C359        C363   1.539   1_455  S
C361        H362   1.100       .  S
C361        C367   1.540   1_545  S
C361        C366   1.572   1_455  S
C361        C368   1.554       .  S
C363        C366   1.371       .  D
C363        C800   1.522       .  S
C364        C367   1.415       .  D
C364        C828   1.532       .  S
C365        C368   1.383       .  D
C365        C849   1.527       .  S
C366        C380   1.522       .  S
C367        C429   1.538       .  S
C368        C401   1.526       .  S
C369        C370   1.420       .  A
C369        C374   1.425       .  A
C369        C387   1.449       .  S
C370        C375   1.528       .  S
C370        C371   1.417   1_545  A
C371        C372   1.411       .  A
C371        C376   1.453       .  S
C372        C373   1.423       .  A
C372        C388   1.454       .  S
C373        C374   1.419   1_565  A
C374        C377   1.446       .  S
C375        C378   1.415   1_545  A
C375        C382   1.421       .  A
C376        N393   1.157       .  T
C377        N395   1.157       .  T
C378        C379   1.414       .  A
C378        C383   1.454       .  S
C379        C380   1.420   1_565  A
C379        C385   1.446       .  S
C380        C381   1.417       .  A
C381        C382   1.423       .  A
C381        C384   1.447       .  S
C382        C386   1.449       .  S
C383        N390   1.158       .  T
C384        N391   1.157       .  T
C385        N389   1.158       .  T
C386        N392   1.157       .  T
C387        N396   1.157       .  T
C388        N394   1.158       .  T
C397        C398   1.413       .  A
C397        C402   1.420       .  A
C397        C415   1.451       .  S
C398        C403   1.507       .  S
C398        C399   1.401       .  A
C399        C400   1.413       .  A
C399        C404   1.453       .  S
C400        C401   1.427       .  A
C400        C416   1.443       .  S
C401        C402   1.421       .  A
C402        C405   1.450       .  S
C403        C406   1.413       .  A
C403        C410   1.409       .  A
C404        N421   1.157       .  T
C405        N423   1.157       .  T
C406        C407   1.414       .  A
C406        C411   1.449       .  S
C407        C408   1.413       .  A
C407        C413   1.450       .  S
C408        C409   1.421       .  A
C409        C410   1.414       .  A
C409        C412   1.451       .  S
C410        C414   1.451       .  S
C411        N418   1.157       .  T
C412        N419   1.157       .  T
C413        N417   1.157       .  T
C414        N420   1.157       .  T
C415        N424   1.157       .  T
C416        N422   1.156       .  T
C425        C426   1.408       .  A
C425        C430   1.418       .  A
C425        C443   1.449       .  S
C426        C431   1.501       .  S
C426        C427   1.409       .  A
C427        C428   1.409       .  A
C427        C432   1.451   1_455  S
C428        C429   1.420       .  A
C428        C444   1.447   1_455  S
C429        C430   1.415       .  A
C430        C433   1.442       .  S
C431        C434   1.414       .  A
C431        C438   1.410   1_455  A
C432        N449   1.157       .  T
C433        N451   1.156   1_565  T
C434        C435   1.417       .  A
C434        C439   1.449       .  S
C435        C436   1.412   1_455  A
C435        C441   1.449       .  S
C436        C437   1.415       .  A
C437        C438   1.407       .  A
C437        C440   1.453       .  S
C438        C442   1.450       .  S
C439        N446   1.157       .  T
C440        N447   1.157       .  T
C441        N445   1.157       .  T
C442        N448   1.156       .  T
C443        N452   1.157       .  T
C444        N450   1.158   1_565  T
C453        C454   1.414       .  A
C453        C458   1.421       .  A
C453        C471   1.448       .  S
C454        C459   1.511       .  S
C454        C455   1.412       .  A
C455        C456   1.412       .  A
C455        C460   1.452       .  S
C456        C457   1.414       .  A
C456        C472   1.445       .  S
C457        C458   1.416       .  A
C458        C461   1.450       .  S
C459        C462   1.414       .  A
C459        C466   1.411       .  A
C460        N477   1.157       .  T
C461        N479   1.157       .  T
C462        C463   1.418       .  A
C462        C467   1.450       .  S
C463        C464   1.414       .  A
C463        C469   1.448       .  S
C464        C465   1.420       .  A
C465        C466   1.414       .  A
C465        C468   1.452       .  S
C466        C470   1.451       .  S
C467        N474   1.157       .  T
C468        N475   1.157       .  T
C469        N473   1.157       .  T
C470        N476   1.157       .  T
C471        N480   1.157       .  T
C472        N478   1.154       .  T
C481        C482   1.413       .  A
C481        C486   1.409       .  A
C481        C499   1.451       .  S
C482        C487   1.491       .  S
C482        C483   1.406       .  A
C483        C484   1.405       .  A
C483        C488   1.452       .  S
C484        C485   1.421       .  A
C484        C500   1.451       .  S
C485        C486   1.414       .  A
C486        C489   1.450       .  S
C487        C490   1.408       .  A
C487        C494   1.407       .  A
C488        N505   1.157       .  T
C489        N507   1.157       .  T
C490        C491   1.411       .  A
C490        C495   1.452       .  S
C491        C492   1.417       .  A
C491        C497   1.446       .  S
C492        C493   1.421       .  A
C493        C494   1.405       .  A
C493        C496   1.452       .  S
C494        C498   1.453       .  S
C495        N502   1.157       .  T
C496        N503   1.157       .  T
C497        N501   1.157       .  T
C498        N504   1.157       .  T
C499        N508   1.157       .  T
C500        N506   1.157       .  T
C509        C510   1.410       .  A
C509        C514   1.411       .  A
C509        C527   1.448       .  S
C510        C515   1.493       .  S
C510        C511   1.407       .  A
C511        C512   1.409       .  A
C511        C516   1.451       .  S
C512        C513   1.419       .  A
C512        C528   1.451       .  S
C513        C514   1.414       .  A
C514        C517   1.449       .  S
C515        C518   1.409       .  A
C515        C522   1.411       .  A
C516        N533   1.157       .  T
C517        N535   1.157       .  T
C518        C519   1.404       .  A
C518        C523   1.452       .  S
C519        C520   1.411   1_565  A
C519        C525   1.448   1_565  S
C520        C521   1.410   1_545  A
C521        C522   1.414       .  A
C521        C524   1.446   1_565  S
C522        C526   1.449       .  S
C523        N530   1.157       .  T
C524        N531   1.157       .  T
C525        N529   1.157       .  T
C526        N532   1.157       .  T
C527        N536   1.156       .  T
C528        N534   1.157       .  T
C537        C538   1.419       .  A
C537        C542   1.419       .  A
C537        C555   1.449       .  S
C538        C543   1.515       .  S
C538        C539   1.416       .  A
C539        C540   1.411       .  A
C539        C544   1.452       .  S
C540        C541   1.415       .  A
C540        C556   1.453       .  S
C541        C542   1.411       .  A
C542        C545   1.449       .  S
C543        C546   1.416       .  A
C543        C550   1.415       .  A
C544        N561   1.157       .  T
C545        N563   1.157       .  T
C546        C547   1.416       .  A
C546        C551   1.451       .  S
C547        C548   1.414       .  A
C547        C553   1.449       .  S
C548        C549   1.417       .  A
C549        C550   1.416       .  A
C549        C552   1.449       .  S
C550        C554   1.451       .  S
C551        N558   1.157       .  T
C552        N559   1.157       .  T
C553        N557   1.157       .  T
C554        N560   1.157       .  T
C555        N564   1.157       .  T
C556        N562   1.157       .  T
C565        C566   1.408       .  A
C565        C570   1.408       .  A
C565        C583   1.452       .  S
C566        C571   1.499       .  S
C566        C567   1.415       .  A
C567        C568   1.415       .  A
C567        C572   1.450       .  S
C568        C569   1.412       .  A
C568        C584   1.450       .  S
C569        C570   1.418       .  A
C570        C573   1.452       .  S
C571        C574   1.411       .  A
C571        C578   1.410       .  A
C572        N589   1.157       .  T
C573        N591   1.157       .  T
C574        C575   1.416       .  A
C574        C579   1.450       .  S
C575        C576   1.415       .  A
C575        C581   1.446       .  S
C576        C577   1.413       .  A
C577        C578   1.407       .  A
C577        C580   1.447       .  S
C578        C582   1.453       .  S
C579        N586   1.157       .  T
C580        N587   1.157       .  T
C581        N585   1.157   1_455  T
C582        N588   1.157       .  T
C583        N592   1.157       .  T
C584        N590   1.158       .  T
C593        C594   1.411       .  A
C593        C598   1.408       .  A
C593        C611   1.449       .  S
C594        C599   1.487       .  S
C594        C595   1.408       .  A
C595        C596   1.404       .  A
C595        C600   1.452       .  S
C596        C597   1.415       .  A
C596        C612   1.453       .  S
C597        C598   1.407       .  A
C598        C601   1.449       .  S
C599        C602   1.407       .  A
C599        C606   1.409       .  A
C600        N617   1.157       .  T
C601        N619   1.157       .  T
C602        C603   1.409       .  A
C602        C607   1.451       .  S
C603        C604   1.414       .  A
C603        C609   1.450       .  S
C604        C605   1.413       .  A
C605        C606   1.407       .  A
C605        C608   1.448       .  S
C606        C610   1.452       .  S
C607        N614   1.157       .  T
C608        N615   1.156       .  T
C609        N613   1.157       .  T
C610        N616   1.157       .  T
C611        N620   1.157       .  T
C612        N618   1.157       .  T
C621        C622   1.408       .  A
C621        C626   1.410       .  A
C621        C639   1.453       .  S
C622        C627   1.501       .  S
C622        C623   1.409       .  A
C623        C624   1.416       .  A
C623        C628   1.449       .  S
C624        C625   1.417       .  A
C624        C640   1.446   1_655  S
C625        C626   1.416       .  A
C626        C629   1.444       .  S
C627        C630   1.412       .  A
C627        C634   1.413       .  A
C628        N645   1.157       .  T
C629        N647   1.156       .  T
C630        C631   1.416       .  A
C630        C635   1.450       .  S
C631        C632   1.413       .  A
C631        C637   1.450       .  S
C632        C633   1.409       .  A
C633        C634   1.410       .  A
C633        C636   1.450       .  S
C634        C638   1.450       .  S
C635        N642   1.157       .  T
C636        N643   1.157       .  T
C637        N641   1.157       .  T
C638        N644   1.157       .  T
C639        N648   1.157       .  T
C640        N646   1.157       .  T
C649        C650   1.411       .  A
C649        C654   1.415       .  A
C649        C667   1.451       .  S
C650        C655   1.495       .  S
C650        C651   1.406       .  A
C651        C652   1.409       .  A
C651        C656   1.452       .  S
C652        C653   1.419       .  A
C652        C668   1.450       .  S
C653        C654   1.417       .  A
C654        C657   1.449       .  S
C655        C658   1.408       .  A
C655        C662   1.412       .  A
C656        N673   1.157       .  T
C657        N675   1.157       .  T
C658        C659   1.405       .  A
C658        C663   1.452       .  S
C659        C660   1.416       .  A
C659        C665   1.449       .  S
C660        C661   1.409       .  A
C661        C662   1.414       .  A
C661        C664   1.445       .  S
C662        C666   1.449       .  S
C663        N670   1.157       .  T
C664        N671   1.157   1_545  T
C665        N669   1.157       .  T
C666        N672   1.157       .  T
C667        N676   1.157       .  T
C668        N674   1.157       .  T
C677        C678   1.414       .  A
C677        C682   1.407       .  A
C677        C695   1.452       .  S
C678        C683   1.504       .  S
C678        C679   1.415       .  A
C679        C680   1.416       .  A
C679        C684   1.447       .  S
C680        C681   1.409       .  A
C680        C696   1.450       .  S
C681        C682   1.412       .  A
C682        C685   1.452       .  S
C683        C686   1.411       .  A
C683        C690   1.412       .  A
C684        N701   1.156       .  T
C685        N703   1.157       .  T
C686        C687   1.412       .  A
C686        C691   1.451       .  S
C687        C688   1.415       .  A
C687        C693   1.449       .  S
C688        C689   1.415       .  A
C689        C690   1.414       .  A
C689        C692   1.450       .  S
C690        C694   1.451       .  S
C691        N698   1.157       .  T
C692        N699   1.157       .  T
C693        N697   1.157       .  T
C694        N700   1.157       .  T
C695        N704   1.157       .  T
C696        N702   1.157       .  T
C705        C706   1.414       .  A
C705        C710   1.423       .  A
C705        C723   1.449       .  S
C706        C711   1.510       .  S
C706        C707   1.409       .  A
C707        C708   1.412       .  A
C707        C712   1.451       .  S
C708        C709   1.417       .  A
C708        C724   1.446       .  S
C709        C710   1.416       .  A
C710        C713   1.445       .  S
C711        C714   1.411       .  A
C711        C718   1.408       .  A
C712        N729   1.157       .  T
C713        N731   1.157       .  T
C714        C715   1.419       .  A
C714        C719   1.451       .  S
C715        C716   1.426       .  A
C715        C721   1.451       .  S
C716        C717   1.428       .  A
C717        C718   1.415       .  A
C717        C720   1.452       .  S
C718        C722   1.451       .  S
C719        N726   1.157       .  T
C720        N727   1.157       .  T
C721        N725   1.158       .  T
C722        N728   1.157       .  T
C723        N732   1.157       .  T
C724        N730   1.157       .  T
C733        C734   1.409       .  A
C733        C738   1.412       .  A
C733        C751   1.450       .  S
C734        C739   1.491       .  S
C734        C735   1.410       .  A
C735        C736   1.406       .  A
C735        C740   1.453       .  S
C736        C737   1.415       .  A
C736        C752   1.452       .  S
C737        C738   1.414       .  A
C738        C741   1.448       .  S
C739        C742   1.408       .  A
C739        C746   1.407       .  A
C740        N757   1.157       .  T
C741        N759   1.157       .  T
C742        C743   1.409       .  A
C742        C747   1.452       .  S
C743        C744   1.415       .  A
C743        C749   1.448       .  S
C744        C745   1.418       .  A
C745        C746   1.408       .  A
C745        C748   1.451       .  S
C746        C750   1.451       .  S
C747        N754   1.157       .  T
C748        N755   1.157       .  T
C749        N753   1.157       .  T
C750        N756   1.157       .  T
C751        N760   1.157       .  T
C752        N758   1.157       .  T
C761        C762   1.410       .  A
C761        C766   1.417       .  A
C761        C779   1.451       .  S
C762        C767   1.510       .  S
C762        C763   1.409       .  A
C763        C764   1.418       .  A
C763        C768   1.451       .  S
C764        C765   1.423       .  A
C764        C780   1.448       .  S
C765        C766   1.424       .  A
C766        C769   1.449       .  S
C767        C770   1.411       .  A
C767        C774   1.408       .  A
C768        N785   1.157       .  T
C769        N787   1.157       .  T
C770        C771   1.420       .  A
C770        C775   1.451       .  S
C771        C772   1.422       .  A
C771        C777   1.446       .  S
C772        C773   1.419       .  A
C773        C774   1.414       .  A
C773        C776   1.447       .  S
C774        C778   1.451       .  S
C775        N782   1.157       .  T
C776        N783   1.156       .  T
C777        N781   1.158       .  T
C778        N784   1.157       .  T
C779        N788   1.157       .  T
C780        N786   1.157       .  T
C789        C790   1.411   1_565  A
C789        C794   1.413       .  A
C789        C807   1.451       .  S
C790        C795   1.509       .  S
C790        C791   1.413       .  A
C791        C792   1.417       .  A
C791        C796   1.449       .  S
C792        C793   1.414   1_545  A
C792        C808   1.448       .  S
C793        C794   1.420       .  A
C794        C797   1.453       .  S
C795        C798   1.408       .  A
C795        C802   1.409   1_545  A
C796        N813   1.157       .  T
C797        N815   1.158       .  T
C798        C799   1.418       .  A
C798        C803   1.451       .  S
C799        C800   1.419       .  A
C799        C805   1.444   1_655  S
C800        C801   1.420   1_545  A
C801        C802   1.417       .  A
C801        C804   1.444       .  S
C802        C806   1.452       .  S
C803        N810   1.157       .  T
C804        N811   1.157       .  T
C805        N809   1.156       .  T
C806        N812   1.157       .  T
C807        N816   1.157       .  T
C808        N814   1.156       .  T
C817        C818   1.412   1_655  A
C817        C822   1.409       .  A
C817        C835   1.453       .  S
C818        C823   1.501       .  S
C818        C819   1.413       .  A
C819        C820   1.409       .  A
C819        C824   1.451       .  S
C820        C821   1.412   1_455  A
C820        C836   1.447       .  S
C821        C822   1.422       .  A
C822        C825   1.453       .  S
C823        C826   1.408       .  A
C823        C830   1.407       .  A
C824        N841   1.157       .  T
C825        N843   1.158       .  T
C826        C827   1.403       .  A
C826        C831   1.450       .  S
C827        C828   1.410       .  A
C827        C833   1.443       .  S
C828        C829   1.433       .  A
C829        C830   1.417       .  A
C829        C832   1.446   1_455  S
C830        C834   1.453   1_455  S
C831        N838   1.157       .  T
C832        N839   1.158       .  T
C833        N837   1.157       .  T
C834        N840   1.157       .  T
C835        N844   1.158       .  T
C836        N842   1.157       .  T
C845        C846   1.407       .  A
C845        C850   1.417       .  A
C845        C863   1.452       .  S
C846        C851   1.511       .  S
C846        C847   1.414       .  A
C847        C848   1.415       .  A
C847        C852   1.453       .  S
C848        C849   1.423       .  A
C848        C864   1.450       .  S
C849        C850   1.429       .  A
C850        C853   1.449       .  S
C851        C854   1.412       .  A
C851        C858   1.413       .  A
C852        N869   1.157       .  T
C853        N871   1.157   1_545  T
C854        C855   1.413       .  A
C854        C859   1.451       .  S
C855        C856   1.421       .  A
C855        C861   1.452       .  S
C856        C857   1.413       .  A
C857        C858   1.417       .  A
C857        C860   1.445       .  S
C858        C862   1.450       .  S
C859        N866   1.157       .  T
C860        N867   1.156       .  T
C861        N865   1.158       .  T
C862        N868   1.157       .  T
C863        N872   1.157       .  T
C864        N870   1.157       .  T
C873        C874   1.413       .  A
C873        C878   1.414       .  A
C873        C891   1.452       .  S
C874        C879   1.510       .  S
C874        C875   1.413       .  A
C875        C876   1.415       .  A
C875        C880   1.450       .  S
C876        C877   1.416       .  A
C876        C892   1.449       .  S
C877        C878   1.423       .  A
C878        C881   1.452   1_556  S
C879        C882   1.414       .  A
C879        C886   1.412       .  A
C880        N897   1.157       .  T
C881        N899   1.158       .  T
C882        C883   1.418       .  A
C882        C887   1.450       .  S
C883        C884   1.417       .  A
C883        C889   1.447       .  S
C884        C885   1.420       .  A
C885        C886   1.411       .  A
C885        C888   1.453       .  S
C886        C890   1.452       .  S
C887        N894   1.157   1_556  T
C888        N895   1.157       .  T
C889        N893   1.157       .  T
C890        N896   1.157       .  T
C891        N900   1.157   1_556  T
C892        N898   1.157       .  T
C901        C902   1.409       .  A
C901        C906   1.407       .  A
C901        C919   1.453       .  S
C902        C907   1.497       .  S
C902        C903   1.412       .  A
C903        C904   1.413       .  A
C903        C908   1.451       .  S
C904        C905   1.414       .  A
C904        C920   1.448       .  S
C905        C906   1.420       .  A
C906        C909   1.453       .  S
C907        C910   1.413       .  A
C907        C914   1.415       .  A
C908        N925   1.157       .  T
C909        N927   1.157       .  T
C910        C911   1.409       .  A
C910        C915   1.450       .  S
C911        C912   1.409       .  A
C911        C917   1.451       .  S
C912        C913   1.409       .  A
C913        C914   1.407       .  A
C913        C916   1.451   1_554  S
C914        C918   1.451       .  S
C915        N922   1.157       .  T
C916        N923   1.157       .  T
C917        N921   1.157       .  T
C918        N924   1.157       .  T
C919        N928   1.157       .  T
C920        N926   1.157       .  T
C929        C930   1.410       .  A
C929        C934   1.409   1_565  A
C929        C947   1.450       .  S
C930        C935   1.502       .  S
C930        C931   1.414       .  A
C931        C932   1.414   1_565  A
C931        C936   1.450       .  S
C932        C933   1.409       .  A
C932        C948   1.446       .  S
C933        C934   1.412       .  A
C934        C937   1.448       .  S
C935        C938   1.413       .  A
C935        C942   1.410       .  A
C936        N953   1.157       .  T
C937        N955   1.157       .  T
C938        C939   1.416       .  A
C938        C943   1.450       .  S
C939        C940   1.414       .  A
C939        C945   1.451       .  S
C940        C941   1.418       .  A
C941        C942   1.411       .  A
C941        C944   1.451       .  S
C942        C946   1.452       .  S
C943        N950   1.157   1_565  T
C944        N951   1.157       .  T
C945        N949   1.157       .  T
C946        N952   1.157       .  T
C947        N956   1.157       .  T
C948        N954   1.157       .  T
C957        C958   1.410       .  A
C957        C962   1.411       .  A
C957        C975   1.451       .  S
C958        C963   1.499       .  S
C958        C959   1.411       .  A
C959        C960   1.415       .  A
C959        C964   1.450       .  S
C960        C961   1.417       .  A
C960        C976   1.451       .  S
C961        C962   1.416       .  A
C962        C965   1.450       .  S
C963        C966   1.414       .  A
C963        C970   1.408       .  A
C964        N981   1.157       .  T
C965        N983   1.157       .  T
C966        C967   1.417       .  A
C966        C971   1.449       .  S
C967        C968   1.411       .  A
C967        C973   1.446   1_455  S
C968        C969   1.412       .  A
C969        C970   1.405       .  A
C969        C972   1.449       .  S
C970        C974   1.451       .  S
C971        N978   1.157       .  T
C972        N979   1.157       .  T
C973        N977   1.157       .  T
C974        N980   1.157       .  T
C975        N984   1.157       .  T
C976        N982   1.158       .  T
C985        C986   1.413       .  A
C985        C990   1.413       .  A
C985       C1003   1.452   1_554  S
C986        C991   1.506       .  S
C986        C987   1.414       .  A
C987        C988   1.414       .  A
C987        C992   1.451       .  S
C988        C989   1.415       .  A
C988       C1004   1.449       .  S
C989        C990   1.415       .  A
C990        C993   1.448   1_554  S
C991        C994   1.416       .  A
C991        C998   1.412       .  A
C992       N1009   1.157       .  T
C993       N1011   1.156       .  T
C994        C995   1.417       .  A
C994        C999   1.449       .  S
C995        C996   1.412       .  A
C995       C1001   1.448       .  S
C996        C997   1.418       .  A
C997        C998   1.407       .  A
C997       C1000   1.453       .  S
C998       C1002   1.453       .  S
C999       N1006   1.157   1_554  T
C1000      N1007   1.157       .  T
C1001      N1005   1.157   1_565  T
C1002      N1008   1.157       .  T
C1003      N1012   1.157       .  T
C1004      N1010   1.157       .  T
C1013      C1014   1.408       .  A
C1013      C1018   1.408       .  A
C1013      C1031   1.452       .  S
C1014      C1019   1.492       .  S
C1014      C1015   1.412       .  A
C1015      C1016   1.411       .  A
C1015      C1020   1.449       .  S
C1016      C1017   1.408       .  A
C1016      C1032   1.449       .  S
C1017      C1018   1.418       .  A
C1018      C1021   1.452       .  S
C1019      C1022   1.411       .  A
C1019      C1026   1.408       .  A
C1020      N1037   1.157       .  T
C1021      N1039   1.157       .  T
C1022      C1023   1.412       .  A
C1022      C1027   1.450       .  S
C1023      C1024   1.412       .  A
C1023      C1029   1.449       .  S
C1024      C1025   1.417       .  A
C1025      C1026   1.407       .  A
C1025      C1028   1.452       .  S
C1026      C1030   1.451       .  S
C1027      N1034   1.157       .  T
C1028      N1035   1.157       .  T
C1029      N1033   1.157       .  T
C1030      N1036   1.157       .  T
C1031      N1040   1.157       .  T
C1032      N1038   1.157       .  T
C1041      C1042   1.412       .  A
C1041      C1046   1.412       .  A
C1041      C1059   1.451       .  S
C1042      C1047   1.501       .  S
C1042      C1043   1.413       .  A
C1043      C1044   1.408       .  A
C1043      C1048   1.452       .  S
C1044      C1045   1.415       .  A
C1044      C1060   1.451       .  S
C1045      C1046   1.417       .  A
C1046      C1049   1.450   1_556  S
C1047      C1050   1.411       .  A
C1047      C1054   1.414       .  A
C1048      N1065   1.157       .  T
C1049      N1067   1.157       .  T
C1050      C1051   1.408       .  A
C1050      C1055   1.449       .  S
C1051      C1052   1.412       .  A
C1051      C1057   1.449       .  S
C1052      C1053   1.411       .  A
C1053      C1054   1.409       .  A
C1053      C1056   1.448       .  S
C1054      C1058   1.451       .  S
C1055      N1062   1.156       .  T
C1056      N1063   1.157       .  T
C1057      N1061   1.156       .  T
C1058      N1064   1.157       .  T
C1059      N1068   1.157       .  T
C1060      N1066   1.157       .  T
C1069      C1070   1.410       .  A
C1069      C1074   1.416       .  A
C1069      C1087   1.450       .  S
C1070      C1075   1.510       .  S
C1070      C1071   1.410       .  A
C1071      C1072   1.417       .  A
C1071      C1076   1.450       .  S
C1072      C1073   1.418       .  A
C1072      C1088   1.447       .  S
C1073      C1074   1.417       .  A
C1074      C1077   1.445       .  S
C1075      C1078   1.413       .  A
C1075      C1082   1.411       .  A
C1076      N1093   1.157       .  T
C1077      N1095   1.156       .  T
C1078      C1079   1.417       .  A
C1078      C1083   1.450       .  S
C1079      C1080   1.417       .  A
C1079      C1085   1.450       .  S
C1080      C1081   1.421       .  A
C1081      C1082   1.415       .  A
C1081      C1084   1.451       .  S
C1082      C1086   1.452       .  S
C1083      N1090   1.157       .  T
C1084      N1091   1.157       .  T
C1085      N1089   1.157       .  T
C1086      N1092   1.157       .  T
C1087      N1096   1.156       .  T
C1088      N1094   1.157       .  T
C1097      C1098   1.408       .  A
C1097      C1102   1.416       .  A
C1097      C1115   1.453       .  S
C1098      C1103   1.521       .  S
C1098      C1099   1.415       .  A
C1099      C1100   1.426       .  A
C1099      C1104   1.451       .  S
C1100      C1101   1.424       .  A
C1100      C1116   1.448       .  S
C1101      C1102   1.430       .  A
C1102      C1105   1.452       .  S
C1103      C1106   1.411       .  A
C1103      C1110   1.411       .  A
C1104      N1121   1.157       .  T
C1105      N1123   1.157   1_556  T
C1106      C1107   1.420       .  A
C1106      C1111   1.451       .  S
C1107      C1108   1.426       .  A
C1107      C1113   1.445       .  S
C1108      C1109   1.423       .  A
C1109      C1110   1.420       .  A
C1109      C1112   1.445       .  S
C1110      C1114   1.451       .  S
C1111      N1118   1.157       .  T
C1112      N1119   1.157       .  T
C1113      N1117   1.156       .  T
C1114      N1120   1.157       .  T
C1115      N1124   1.157       .  T
C1116      N1122   1.157       .  T
C1125      C1126   1.408       .  A
C1125      C1130   1.410       .  A
C1125      C1143   1.450       .  S
C1126      C1131   1.495       .  S
C1126      C1127   1.409       .  A
C1127      C1128   1.410       .  A
C1127      C1132   1.452       .  S
C1128      C1129   1.415       .  A
C1128      C1144   1.448       .  S
C1129      C1130   1.416       .  A
C1130      C1133   1.448   1_655  S
C1131      C1134   1.408       .  A
C1131      C1138   1.409       .  A
C1132      N1149   1.157       .  T
C1133      N1151   1.157       .  T
C1134      C1135   1.412       .  A
C1134      C1139   1.452       .  S
C1135      C1136   1.419       .  A
C1135      C1141   1.450       .  S
C1136      C1137   1.417       .  A
C1137      C1138   1.410       .  A
C1137      C1140   1.451       .  S
C1138      C1142   1.450       .  S
C1139      N1146   1.157       .  T
C1140      N1147   1.157   1_556  T
C1141      N1145   1.157       .  T
C1142      N1148   1.157       .  T
C1143      N1152   1.157       .  T
C1144      N1150   1.157       .  T
C1153      C1154   1.410       .  A
C1153      C1158   1.405       .  A
C1153      C1171   1.452       .  S
C1154      C1159   1.491       .  S
C1154      C1155   1.412       .  A
C1155      C1156   1.411       .  A
C1155      C1160   1.450       .  S
C1156      C1157   1.411       .  A
C1156      C1172   1.450       .  S
C1157      C1158   1.411       .  A
C1158      C1161   1.450       .  S
C1159      C1162   1.411       .  A
C1159      C1166   1.409       .  A
C1160      N1177   1.157       .  T
C1161      N1179   1.157       .  T
C1162      C1163   1.413       .  A
C1162      C1167   1.451       .  S
C1163      C1164   1.413       .  A
C1163      C1169   1.449       .  S
C1164      C1165   1.412       .  A
C1165      C1166   1.403       .  A
C1165      C1168   1.451       .  S
C1166      C1170   1.453       .  S
C1167      N1174   1.157       .  T
C1168      N1175   1.157       .  T
C1169      N1173   1.157       .  T
C1170      N1176   1.157       .  T
C1171      N1180   1.157       .  T
C1172      N1178   1.157       .  T
C1181      C1182   1.408       .  A
C1181      C1186   1.414       .  A
C1181      C1199   1.453       .  S
C1182      C1187   1.504       .  S
C1182      C1183   1.409       .  A
C1183      C1184   1.414       .  A
C1183      C1188   1.450       .  S
C1184      C1185   1.418       .  A
C1184      C1200   1.447       .  S
C1185      C1186   1.419       .  A
C1186      C1189   1.445       .  S
C1187      C1190   1.409       .  A
C1187      C1194   1.410       .  A
C1188      N1205   1.157       .  T
C1189      N1207   1.156       .  T
C1190      C1191   1.410       .  A
C1190      C1195   1.450       .  S
C1191      C1192   1.417       .  A
C1191      C1197   1.451       .  S
C1192      C1193   1.421       .  A
C1193      C1194   1.419       .  A
C1193      C1196   1.449       .  S
C1194      C1198   1.451       .  S
C1195      N1202   1.157       .  T
C1196      N1203   1.157       .  T
C1197      N1201   1.157   1_554  T
C1198      N1204   1.157       .  T
C1199      N1208   1.157       .  T
C1200      N1206   1.157   1_545  T
C1209      C1210   1.409       .  A
C1209      C1214   1.415       .  A
C1209      C1227   1.451       .  S
C1210      C1215   1.512       .  S
C1210      C1211   1.410       .  A
C1211      C1212   1.420       .  A
C1211      C1216   1.450       .  S
C1212      C1213   1.420       .  A
C1212      C1228   1.443       .  S
C1213      C1214   1.422       .  A
C1214      C1217   1.449       .  S
C1215      C1218   1.412       .  A
C1215      C1222   1.406       .  A
C1216      N1233   1.157       .  T
C1217      N1235   1.157       .  T
C1218      C1219   1.421       .  A
C1218      C1223   1.451       .  S
C1219      C1220   1.421       .  A
C1219      C1225   1.447       .  S
C1220      C1221   1.420       .  A
C1221      C1222   1.417       .  A
C1221      C1224   1.440       .  S
C1222      C1226   1.452       .  S
C1223      N1230   1.157       .  T
C1224      N1231   1.155       .  T
C1225      N1229   1.157       .  T
C1226      N1232   1.157       .  T
C1227      N1236   1.157       .  T
C1228      N1234   1.156       .  T
C1237      C1238   1.408   1_455  A
C1237      C1242   1.414       .  A
C1237      C1255   1.452       .  S
C1238      C1243   1.506       .  S
C1238      C1239   1.410       .  A
C1239      C1240   1.417       .  A
C1239      C1244   1.452       .  S
C1240      C1241   1.419   1_655  A
C1240      C1256   1.445       .  S
C1241      C1242   1.425       .  A
C1242      C1245   1.451       .  S
C1243      C1246   1.407       .  A
C1243      C1250   1.408   1_655  A
C1244      N1261   1.157       .  T
C1245      N1263   1.157       .  T
C1246      C1247   1.416       .  A
C1246      C1251   1.450       .  S
C1247      C1248   1.425       .  A
C1247      C1253   1.449       .  S
C1248      C1249   1.425   1_655  A
C1249      C1250   1.413       .  A
C1249      C1252   1.444       .  S
C1250      C1254   1.456       .  S
C1251      N1258   1.157       .  T
C1252      N1259   1.156       .  T
C1253      N1257   1.157   1_545  T
C1254      N1260   1.157       .  T
C1255      N1264   1.158       .  T
C1256      N1262   1.156       .  T
C1265      C1266   1.404       .  A
C1265      C1270   1.408       .  A
C1265      C1283   1.455       .  S
C1266      C1271   1.491       .  S
C1266      C1267   1.398   1_545  A
C1267      C1268   1.416       .  A
C1267      C1272   1.453       .  S
C1268      C1269   1.441       .  A
C1268      C1284   1.447       .  S
C1269      C1270   1.424   1_565  A
C1270      C1273   1.442       .  S
C1271      C1274   1.404       .  A
C1271      C1278   1.408   1_545  A
C1272      N1289   1.157       .  T
C1273      N1291   1.154       .  T
C1274      C1275   1.405       .  A
C1274      C1279   1.452       .  S
C1275      C1276   1.419       .  A
C1275      C1281   1.451       .  S
C1276      C1277   1.412       .  A
C1277      C1278   1.411   1_545  A
C1277      C1280   1.447   1_545  S
C1278      C1282   1.449       .  S
C1279      N1286   1.157       .  T
C1280      N1287   1.157       .  T
C1281      N1285   1.157       .  T
C1282      N1288   1.157       .  T
C1283      N1292   1.157       .  T
C1284      N1290   1.158   1_455  T
C1293      C1294   1.406       .  A
C1293      C1298   1.410       .  A
C1293      C1311   1.452       .  S
C1294      C1299   1.494       .  S
C1294      C1295   1.405       .  A
C1295      C1296   1.413       .  A
C1295      C1300   1.452       .  S
C1296      C1297   1.419       .  A
C1296      C1312   1.444       .  S
C1297      C1298   1.420       .  A
C1298      C1301   1.449       .  S
C1299      C1302   1.412       .  A
C1299      C1306   1.405       .  A
C1300      N1317   1.157       .  T
C1301      N1319   1.157       .  T
C1302      C1303   1.411       .  A
C1302      C1307   1.452       .  S
C1303      C1304   1.412       .  A
C1303      C1309   1.449       .  S
C1304      C1305   1.415       .  A
C1305      C1306   1.409       .  A
C1305      C1308   1.446       .  S
C1306      C1310   1.450       .  S
C1307      N1314   1.157       .  T
C1308      N1315   1.156       .  T
C1309      N1313   1.157       .  T
C1310      N1316   1.157       .  T
C1311      N1320   1.157       .  T
C1312      N1318   1.155       .  T
C1321      C1322   1.413       .  A
C1321      C1326   1.413       .  A
C1321      C1339   1.452       .  S
C1322      C1327   1.519       .  S
C1322      C1323   1.415       .  A
C1323      C1324   1.423       .  A
C1323      C1328   1.449       .  S
C1324      C1325   1.417   1_655  A
C1324      C1340   1.448   1_655  S
C1325      C1326   1.419   1_455  A
C1326      C1329   1.450   1_655  S
C1327      C1330   1.410   1_655  A
C1327      C1334   1.414       .  A
C1328      N1345   1.157       .  T
C1329      N1347   1.158       .  T
C1330      C1331   1.412       .  A
C1330      C1335   1.457       .  S
C1331      C1332   1.421   1_455  A
C1331      C1337   1.441       .  S
C1332      C1333   1.425       .  A
C1333      C1334   1.426       .  A
C1333      C1336   1.448       .  S
C1334      C1338   1.449       .  S
C1335      N1342   1.157       .  T
C1336      N1343   1.157       .  T
C1337      N1341   1.154       .  T
C1338      N1344   1.157       .  T
C1339      N1348   1.157       .  T
C1340      N1346   1.157       .  T
C1349      C1350   1.408       .  A
C1349      C1354   1.412       .  A
C1349      C1367   1.453       .  S
C1350      C1355   1.513       .  S
C1350      C1351   1.411       .  A
C1351      C1352   1.424       .  A
C1351      C1356   1.451       .  S
C1352      C1353   1.428       .  A
C1352      C1368   1.443       .  S
C1353      C1354   1.428       .  A
C1354      C1357   1.447       .  S
C1355      C1358   1.412   1_565  A
C1355      C1362   1.418       .  A
C1356      N1373   1.157       .  T
C1357      N1375   1.157   1_455  T
C1358      C1359   1.411       .  A
C1358      C1363   1.448       .  S
C1359      C1360   1.416       .  A
C1359      C1365   1.452       .  S
C1360      C1361   1.414   1_545  A
C1361      C1362   1.418       .  A
C1361      C1364   1.447       .  S
C1362      C1366   1.451       .  S
C1363      N1370   1.156       .  T
C1364      N1371   1.157       .  T
C1365      N1369   1.157       .  T
C1366      N1372   1.157       .  T
C1367      N1376   1.157       .  T
C1368      N1374   1.156       .  T
