geometry optimzed in LAMMPS
_audit_creation_date              2020-11-30 
_audit_creation_method            'lammps2cif' 
_symmetry_space_group_name_H-M    'P1' 
_symmetry_Int_Tables_number       1 
_symmetry_cell_setting            triclinic 
loop_ 
_symmetry_equiv_pos_as_xyz 
  x,y,z 
_cell_length_a                    26.81345775 
_cell_length_b                    26.14109839947572 
_cell_length_c                    57.70184487776823 
_cell_angle_alpha                 90.13762043894243 
_cell_angle_beta                  89.90574952703244 
_cell_angle_gamma                 120.76926669331162 
loop_ 
_atom_site_label 
_atom_site_type_symbol 
_atom_site_fract_x 
_atom_site_fract_y 
_atom_site_fract_z 
_atom_site_charge 
C1          C  0.06431141  0.05845767  0.14775172     0.04100
C2          C  0.10221264  0.04401623  0.15919539    -0.12100
C3          C  0.13369544  0.07774351  0.17867352     0.01600
C4          C  0.13071612  0.12842948  0.18324465    -0.10600
C5          C  0.07871018  0.12677948  0.17922261     0.04100
C6          C  0.04654279  0.09342485  0.15991356    -0.10000
H7          H  0.10907959  0.00949659  0.15245778     0.09700
H8          H  0.16746080  0.16755307  0.19027461     0.07200
H9          H  0.01007985  0.09657884  0.15380757     0.07000
C10         C  0.19823421  0.02957940  0.22889456     0.46400
H11         H  0.19847331  0.02996839  0.24814698    -0.02600
C12         C  0.19833044  0.02904413  0.18386241     0.46500
H13         H  0.19857760  0.02869229  0.16464532    -0.02600
C14         C  0.25958838  0.06087541  0.21843360    -0.16300
C15         C  0.16495035  0.46639049  0.21655855    -0.16100
C16         C  0.16782651  0.06063797  0.21826352    -0.16400
C17         C  0.25956968  0.06015888  0.19436875    -0.16400
C18         C  0.16495080  0.46640652  0.19240767    -0.16000
C19         C  0.16797065  0.06039033  0.19406127    -0.16300
C20         C  0.02914758  0.19090499  0.18404826     0.46400
H21         H  0.02966132  0.19091831  0.16483726    -0.02600
C22         C  0.02866435  0.19124454  0.22909820     0.46500
H23         H  0.02835064  0.19125683  0.24834866    -0.02600
C24         C  0.06084407  0.25378970  0.19448504    -0.16300
C25         C  0.46762470  0.16012460  0.19427046    -0.16100
C26         C  0.05884433  0.15944067  0.19453927    -0.16400
C27         C  0.06080955  0.25406343  0.21867630    -0.16400
C28         C  0.46731654  0.16076271  0.21849704    -0.16000
C29         C  0.05859773  0.15950336  0.21868794    -0.16300
C30         C  0.36535727  0.15882970  0.14746467     0.04100
C31         C  0.31318328  0.12532888  0.15999613    -0.12100
C32         C  0.31209036  0.09227544  0.17925068     0.01600
C33         C  0.36253224  0.09101260  0.18362253    -0.10600
C34         C  0.41597417  0.14145681  0.17873690     0.04100
C35         C  0.41789646  0.17354621  0.15877401    -0.10000
H36         H  0.27359519  0.12268505  0.15424421     0.09700
H37         H  0.36039909  0.05266681  0.19133175     0.07200
H38         H  0.45900752  0.20780087  0.15184944     0.07000
C39         C  0.16538446  0.35754609  0.14817556     0.04100
C40         C  0.17990785  0.41249763  0.15863084    -0.12100
C41         C  0.14625869  0.41285579  0.17730504     0.01600
C42         C  0.09543045  0.35934753  0.18197017    -0.10600
C43         C  0.09549855  0.30648651  0.17908966     0.04100
C44         C  0.12939792  0.30500051  0.16080973    -0.10000
H45         H  0.21528270  0.45387384  0.15193925     0.09700
H46         H  0.05809655  0.35921788  0.18876644     0.07200
H47         H  0.12559804  0.26324171  0.15592274     0.07000
C48         C  0.36667821  0.18097354  0.25939281     0.04100
C49         C  0.41856536  0.18943496  0.24946402    -0.12100
C50         C  0.41605044  0.14759174  0.23341053     0.01600
C51         C  0.36246938  0.09496338  0.23106655    -0.10600
C52         C  0.31191158  0.09763982  0.23324217     0.04100
C53         C  0.31356093  0.13959690  0.24884335    -0.10000
H54         H  0.46003548  0.22722962  0.25448909     0.09700
H55         H  0.36026054  0.05434087  0.22586016     0.07200
H56         H  0.27365324  0.13806668  0.25332398     0.07000
C57         C  0.17234102  0.36441725  0.26174016     0.04100
C58         C  0.13115099  0.30888410  0.25194741    -0.12100
C59         C  0.09544503  0.30765431  0.23377880     0.01600
C60         C  0.09640996  0.36054632  0.22951589    -0.10600
C61         C  0.14904875  0.41389428  0.23170146     0.04100
C62         C  0.18698167  0.41618096  0.24891088    -0.10000
H63         H  0.12614147  0.26785551  0.25859946     0.09700
H64         H  0.05833725  0.35975714  0.22325058     0.07200
H65         H  0.22538656  0.45824026  0.25303854     0.07000
C66         C  0.05392274  0.04657769  0.26154558     0.04100
C67         C  0.04030218  0.08675012  0.25113314    -0.12100
C68         C  0.07694883  0.12548955  0.23384024     0.01600
C69         C  0.12974964  0.12786076  0.23059078    -0.10600
C70         C  0.13117836  0.07552869  0.23327673     0.04100
C71         C  0.09433792  0.03568042  0.25022833    -0.10000
H72         H  0.00264219  0.08856028  0.25665572     0.09700
H73         H  0.16739040  0.16809164  0.22471652     0.07200
H74         H  0.09875393  0.99828884  0.25505897     0.07000
Zn75       Zn  0.37266551  0.32773324  0.46078438     1.49700
Zn76       Zn  0.37006459  0.40853994  0.42171056     1.49400
Zn77       Zn  0.29880506  0.39360330  0.46338710     1.49100
Zn78       Zn  0.44008424  0.47001883  0.46580976     1.49500
O79         O  0.37121552  0.40003137  0.45389863    -1.83200
O80         O  0.36951577  0.28259729  0.43125794    -0.73800
O81         O  0.31614581  0.43388664  0.41145877    -0.73600
O82         O  0.26052473  0.32691192  0.48601561    -0.73100
O83         O  0.34762956  0.33276402  0.40613991    -0.73800
O84         O  0.30643174  0.27645822  0.48216178    -0.73400
O85         O  0.24448604  0.38125592  0.43598850    -0.74000
O86         O  0.41483476  0.51747873  0.48462201    -0.73400
O87         O  0.44637387  0.46721118  0.40979564    -0.74100
O88         O  0.31794504  0.46580177  0.48263074    -0.73500
O89         O  0.49823254  0.51964139  0.44020325    -0.74000
O90         O  0.47709504  0.44257426  0.48923186    -0.73900
O91         O  0.43986580  0.34605447  0.48183630    -0.73700
C92         C  0.35448552  0.28949830  0.41106270     0.78100
C93         C  0.26272916  0.40704699  0.41649187     0.78600
C94         C  0.26921368  0.28542106  0.49217051     0.77500
C95         C  0.36530547  0.50845330  0.49081859     0.77900
C96         C  0.49250335  0.50947462  0.41844895     0.79100
C97         C  0.47239189  0.39260024  0.49373882     0.78100
Zn98       Zn  0.27507077  0.33825519  0.94659547     1.49700
Zn99       Zn  0.41555767  0.40410767  0.94706914     1.49400
Zn100      Zn  0.34193778  0.33280980  0.98975493     1.49100
Zn101      Zn  0.33846005  0.26028317  0.94583546     1.49500
O102        O  0.34257886  0.33378601  0.95683764    -1.83200
O103        O  0.30164598  0.41056860  0.92650725    -0.73800
O104        O  0.46741621  0.45334648  0.97401418    -0.73600
O105        O  0.27035543  0.32459903  0.00251240    -0.73100
O106        O  0.39807918  0.45516379  0.92691451    -0.73800
O107        O  0.22305233  0.33582721  0.97325817    -0.73400
O108        O  0.40722563  0.40545532  0.00316954    -0.74000
O109        O  0.34275704  0.20992722  0.97203165    -0.73400
O110        O  0.45755594  0.37995827  0.92477262    -0.74100
O111        O  0.34874576  0.26667034  0.00188446    -0.73500
O112        O  0.40238669  0.28124836  0.92275311    -0.74000
O113        O  0.26743196  0.21307197  0.92605123    -0.73900
O114        O  0.22907625  0.27111189  0.92437214    -0.73700
C115        C  0.35146058  0.45049109  0.91925319     0.78100
C116        C  0.45486030  0.44770208  0.99551149     0.78600
C117        C  0.22811880  0.32821945  0.99474893     0.77500
C118        C  0.34791123  0.22127585  0.99367570     0.77900
C119        C  0.44483522  0.33037552  0.91561387     0.79100
C120        C  0.23166947  0.22623573  0.91747265     0.78100
C121        C  0.35773966  0.04312902  0.64610364     0.04100
C122        C  0.41120020  0.08315531  0.65691627    -0.12100
C123        C  0.41261135  0.12085307  0.67463008     0.01600
C124        C  0.36177259  0.12234767  0.67796935    -0.10600
C125        C  0.30842718  0.06988030  0.67493798     0.04100
C126        C  0.30609022  0.03110939  0.65749459    -0.10000
H127        H  0.45100533  0.08574264  0.65141252     0.09700
H128        H  0.36365740  0.16221668  0.68396422     0.07200
H129        H  0.26466408  0.99335881  0.65255982     0.07000
C130        C  0.35755395  0.05292990  0.76055010     0.04100
C131        C  0.41057210  0.08837173  0.74872256    -0.12100
C132        C  0.41199099  0.12193965  0.72943951     0.01600
C133        C  0.36187627  0.12390963  0.72534389    -0.10600
C134        C  0.30835423  0.07308625  0.72961131     0.04100
C135        C  0.30574509  0.03871508  0.74880489    -0.10000
H136        H  0.45000001  0.09123933  0.75486397     0.09700
H137        H  0.36442571  0.16317499  0.71837361     0.07200
H138        H  0.26426328  0.00337255  0.75498494     0.07000
C139        C  0.19516718  0.02337002  0.67969347     0.46400
H140        H  0.19462696  0.02219328  0.66044738    -0.02600
C141        C  0.19568807  0.02574413  0.72475241     0.46500
H142        H  0.19546890  0.02655874  0.74397938    -0.02600
C143        C  0.16820282  0.46173878  0.69439129    -0.16300
C144        C  0.25683821  0.05442767  0.69006563    -0.16100
C145        C  0.16618278  0.05637275  0.68978244    -0.16400
C146        C  0.16764776  0.46067172  0.71852034    -0.16400
C147        C  0.25691602  0.05563911  0.71426502    -0.16000
C148        C  0.16631989  0.05715576  0.71393176    -0.16300
C149        C  0.02528099  0.18499490  0.72481523     0.46400
H150        H  0.02470247  0.18457768  0.74404027    -0.02600
C151        C  0.02658463  0.18654880  0.67979132     0.46500
H152        H  0.02708340  0.18727782  0.66054793    -0.02600
C153        C  0.46437205  0.15433864  0.71417367    -0.16300
C154        C  0.05683920  0.24809961  0.71486938    -0.16100
C155        C  0.05584381  0.15422147  0.71426805    -0.16400
C156        C  0.46480216  0.15490354  0.69000096    -0.16400
C157        C  0.05790092  0.24913722  0.69072140    -0.16000
C158        C  0.05660322  0.15490192  0.69010184    -0.16300
C159        C  0.05874387  0.36160152  0.64864566     0.04100
C160        C  0.09729875  0.41323711  0.66132407    -0.12100
C161        C  0.13200933  0.40990630  0.67873916     0.01600
C162        C  0.13021616  0.35589155  0.68090147    -0.10600
C163        C  0.07819340  0.30349848  0.67610543     0.04100
C164        C  0.04395904  0.30582981  0.65818388    -0.10000
H165        H  0.10162496  0.45567014  0.65727619     0.09700
H166        H  0.16662092  0.35423202  0.68768925     0.07200
H167        H  0.00711877  0.26517519  0.65174351     0.07000
C168        C  0.17207918  0.17091655  0.64701984     0.04100
C169        C  0.13116898  0.18118550  0.65832814    -0.12100
C170        C  0.09387081  0.14073281  0.67504776     0.01600
C171        C  0.09549820  0.08845507  0.67761168    -0.10600
C172        C  0.14840789  0.09092565  0.67448383     0.04100
C173        C  0.18555883  0.13038746  0.65738783    -0.10000
H174        H  0.12723296  0.21906395  0.65381023     0.09700
H175        H  0.05790684  0.04818747  0.68349139     0.07200
H176        H  0.22344312  0.12876904  0.65210249     0.07000
C177        C  0.16152202  0.15977953  0.75989816     0.04100
C178        C  0.17947812  0.12468460  0.74799501    -0.12100
C179        C  0.14675709  0.09018656  0.72899536     0.01600
C180        C  0.09426779  0.08746255  0.72507449    -0.10600
C181        C  0.09092027  0.13796447  0.72940356     0.04100
C182        C  0.12328276  0.17329220  0.74832734    -0.10000
H183        H  0.21642987  0.12229909  0.75398368     0.09700
H184        H  0.05787215  0.04808488  0.71799499     0.07200
H185        H  0.11687793  0.20852908  0.75454909     0.07000
C186        C  0.05005356  0.35187671  0.75979640     0.04100
C187        C  0.03582881  0.29907817  0.74767011    -0.12100
C188        C  0.07377459  0.30031007  0.73053960     0.01600
C189        C  0.12737670  0.35282184  0.72860981    -0.10600
C190        C  0.13023751  0.40673718  0.73293589     0.04100
C191        C  0.09290009  0.40659437  0.75006927    -0.10000
H192        H  0.99690047  0.25748671  0.75182137     0.09700
H193        H  0.16474420  0.35220066  0.72227662     0.07200
H194        H  0.09802715  0.44828733  0.75600551     0.07000
C195        C  0.18690225  0.15631478  0.82052305     0.21300
C196        C  0.20207741  0.13761363  0.84069739    -0.38600
C197        C  0.19123061  0.15757609  0.86163273     0.20300
C198        C  0.16645758  0.19282131  0.86235730     0.22900
C199        C  0.15057477  0.21074019  0.84215945    -0.39100
C200        C  0.16215962  0.19143158  0.82126988     0.21700
N201        N  0.19408777  0.14460254  0.79852622    -0.32400
C202        C  0.17353526  0.17226829  0.78499545    -0.09900
C203        C  0.15341790  0.20216659  0.79875856    -0.28700
N204        N  0.16977100  0.21427686  0.88380173    -0.45300
C205        C  0.19848030  0.19425812  0.89673536    -0.04600
C206        C  0.21077844  0.15702271  0.88363304    -0.22000
H207        H  0.22346136  0.11197496  0.84008780     0.19800
H208        H  0.13311028  0.24000993  0.84263896     0.18600
H209        H  0.13271788  0.22638085  0.79327881     0.14900
H210        H  0.23838288  0.13979854  0.88852011     0.14800
H211        H  0.20944998  0.11687608  0.79329055     0.32900
H212        H  0.16029281  0.24704107  0.88846507     0.35700
C213        C  0.51248021  0.36562999  0.86067889     0.21300
C214        C  0.03700863  0.40338642  0.84152437    -0.38600
C215        C  0.02662115  0.37508100  0.81993562     0.20300
C216        C  0.99454538  0.31391112  0.81757799     0.22900
C217        C  0.96996078  0.27600993  0.83673708    -0.39100
C218        C  0.98009675  0.30432906  0.85836763     0.21700
N219        N  0.51031854  0.38195766  0.88254739    -0.32400
C220        C  0.47501813  0.33093252  0.89421661    -0.09900
C221        C  0.45655021  0.28139043  0.87979758    -0.28700
N222        N  0.99385397  0.29802243  0.79537851    -0.45300
C223        C  0.02651780  0.34947389  0.78339186    -0.04600
C224        C  0.04677023  0.39852738  0.79828308    -0.22000
H225        H  0.56166703  0.45137207  0.84327299     0.19800
H226        H  0.94405781  0.22808841  0.83489249     0.18600
H227        H  0.42438796  0.23555865  0.88365973     0.15500
H228        H  0.07639651  0.44497587  0.79439011     0.14800
H229        H  0.52642782  0.42546549  0.88844008     0.32900
H230        H  0.97555534  0.25439370  0.78933658     0.35700
C231        C  0.32829710  0.49283429  0.86445271     0.21300
C232        C  0.29571830  0.47955399  0.84402013    -0.38600
C233        C  0.32555565  0.02139516  0.82182281     0.20300
C234        C  0.38529896  0.05667894  0.82131330     0.22900
C235        C  0.41844861  0.07767167  0.84164982    -0.39100
C236        C  0.38704675  0.05994020  0.86249020     0.21700
N237        N  0.30783232  0.47152483  0.88568203    -0.32400
C238        C  0.35494994  0.48596236  0.89893994    -0.09900
C239        C  0.40608266  0.51981378  0.88628330    -0.28700
N240        N  0.40470618  0.06758488  0.79937024    -0.45300
C241        C  0.35687205  0.03964074  0.78561861    -0.04600
C242        C  0.30668805  0.00968155  0.79922089    -0.22000
H243        H  0.24873205  0.45466815  0.84410187     0.19800
H244        H  0.46540852  0.10363847  0.84129007     0.18600
H245        H  0.45123998  0.07988816  0.88989070     0.14900
H246        H  0.26193690  0.98567830  0.79358118     0.14800
H247        H  0.26443067  0.44198690  0.88995257     0.32900
H248        H  0.44774143  0.09574856  0.79429534     0.35700
C249        C  0.20790790  0.24482356  0.54807323     0.21300
C250        C  0.18528248  0.25412310  0.56849359    -0.38600
C251        C  0.19505959  0.23100548  0.58870802     0.20300
C252        C  0.22489516  0.20082454  0.58863874     0.22900
C253        C  0.24794954  0.19185419  0.56820609    -0.39100
C254        C  0.23826050  0.21506970  0.54793843     0.21700
N255        N  0.20894825  0.26714972  0.52706811    -0.32400
C256        C  0.24124628  0.25273790  0.51347970    -0.09900
C257        C  0.25939162  0.21920504  0.52581091    -0.28700
N258        N  0.22510235  0.18010612  0.60990390    -0.45300
C259        C  0.19467053  0.19672966  0.62372041    -0.04600
C260        C  0.17604765  0.22942732  0.61095309    -0.22000
H261        H  0.16208881  0.27796965  0.56865038     0.19800
H262        H  0.27203881  0.16894437  0.56812842     0.18600
H263        H  0.28950486  0.20574234  0.52014252     0.14900
H264        H  0.14834870  0.24599181  0.61650429     0.14800
H265        H  0.19361168  0.29555944  0.52291199     0.32900
H266        H  0.24169942  0.15289608  0.61415774     0.35700
C267        C  0.37453711  0.00185607  0.54547337     0.21300
C268        C  0.41071790  0.02754600  0.56480573    -0.38600
C269        C  0.38231852  0.01880765  0.58612139     0.20300
C270        C  0.32256133  0.98711215  0.58803166     0.22900
C271        C  0.30045309  0.51861566  0.56731938    -0.39100
C272        C  0.33106334  0.53931031  0.54641611     0.21700
N273        N  0.41028530  0.57688974  0.52392476    -0.32400
C274        C  0.36259871  0.54163765  0.51091002    -0.09900
C275        C  0.31221415  0.52003899  0.52420255    -0.28700
N276        N  0.30623054  0.98730350  0.61001842    -0.45300
C277        C  0.35596561  0.01994112  0.62236463    -0.04600
C278        C  0.40438468  0.03968604  0.60789090    -0.22000
H279        H  0.45757069  0.05170242  0.56340342     0.19800
H280        H  0.25383345  0.48907351  0.56780645     0.18600
H281        H  0.26886312  0.48538249  0.51935416     0.14900
H282        H  0.44964414  0.06905304  0.61217329     0.14800
H283        H  0.43345975  0.01333693  0.51834552     0.32900
H284        H  0.26349030  0.96898846  0.61571460     0.35700
C285        C  0.03301972  0.40999158  0.54981482     0.21300
C286        C  0.05559112  0.44053910  0.57074367    -0.38600
C287        C  0.04436978  0.40474701  0.59035668     0.20300
C288        C  0.01342903  0.34330473  0.58928633     0.22900
C289        C  0.49110313  0.31262376  0.56831546    -0.39100
C290        C  0.50213235  0.34842611  0.54863922     0.21700
N291        N  0.53199412  0.43374145  0.52933924    -0.32400
C292        C  0.49959265  0.38710441  0.51500262    -0.09900
C293        C  0.48119986  0.33311669  0.52634268    -0.28700
N294        N  0.01037489  0.31977835  0.61030177    -0.45300
C295        C  0.04003641  0.36667217  0.62495474    -0.04600
C296        C  0.06135432  0.42041574  0.61296012    -0.22000
H297        H  0.07917426  0.48868072  0.57176190     0.19800
H298        H  0.46599964  0.26449448  0.56745889     0.18600
H299        H  0.45092894  0.28880181  0.51999064     0.14900
H300        H  0.08895950  0.46527771  0.61934599     0.14800
H301        H  0.04770660  0.47874067  0.52601158     0.32900
H302        H  0.99185382  0.27454236  0.61394737     0.35700
C303        C  0.01377600  0.02756928  0.32119753     0.21300
C304        C  0.49940300  0.04301880  0.34243045    -0.38600
C305        C  0.50618790  0.01565083  0.36207380     0.20300
C306        C  0.07030109  0.54307357  0.36773601     0.22900
C307        C  0.04032222  0.96079368  0.33936434    -0.39100
C308        C  0.03328717  0.98794529  0.31978916     0.21700
N309        N  0.01306780  0.04892391  0.30015680    -0.32400
C310        C  0.03308687  0.02332838  0.28516549    -0.09900
C311        C  0.04514158  0.98411143  0.29690848    -0.28700
N312        N  0.56249293  0.52035968  0.38916235    -0.45300
C313        C  0.53829511  0.54580161  0.40187310    -0.04600
C314        C  0.53427008  0.58821315  0.38862433    -0.22000
H315        H  0.48243314  0.07266195  0.34349528     0.19800
H316        H  0.05431369  0.92868597  0.33811707     0.18600
H317        H  0.06395023  0.95912528  0.29012632     0.14900
H318        H  0.50922945  0.60888853  0.39287124     0.14800
H319        H  0.00372858  0.08232808  0.29667408     0.32900
H320        H  0.06312323  0.48194438  0.39358429     0.35700
C321        C  0.21931773  0.42150015  0.36178696     0.21300
C322        C  0.23673269  0.44906835  0.34011672    -0.38600
C323        C  0.21689990  0.41111024  0.32092177     0.20300
C324        C  0.18180633  0.35018458  0.32294382     0.22900
C325        C  0.16458576  0.32223078  0.34469223    -0.39100
C326        C  0.18499133  0.36035866  0.36407162     0.21700
N327        N  0.24139673  0.44709087  0.38230580    -0.32400
C328        C  0.22362907  0.40221471  0.39782174    -0.09900
C329        C  0.18621894  0.34748681  0.38721048    -0.28700
N330        N  0.16648547  0.32463001  0.30186302    -0.45300
C331        C  0.19158979  0.36987767  0.28624450    -0.04600
C332        C  0.22449484  0.42440167  0.29775784    -0.22000
H333        H  0.26559872  0.49654284  0.33833108     0.19800
H334        H  0.13895435  0.27429743  0.34641291     0.18600
H335        H  0.17163995  0.30376632  0.39432667     0.14900
H336        H  0.24696760  0.46878874  0.29053158     0.14800
H337        H  0.27456056  0.49125156  0.38476634     0.32900
H338        H  0.13710325  0.27969005  0.29854327     0.35700
C339        C  0.32477098  0.22476074  0.35617078     0.21300
C340        C  0.29894104  0.21565225  0.33428903    -0.38600
C341        C  0.33280651  0.21694609  0.31557421     0.20300
C342        C  0.38824628  0.22688986  0.31839449     0.22900
C343        C  0.41415419  0.23599426  0.34031010    -0.39100
C344        C  0.38011487  0.23431114  0.35910948     0.21700
N345        N  0.30470928  0.23367000  0.37611391    -0.32400
C346        C  0.34771998  0.25004356  0.39186776    -0.09900
C347        C  0.39495210  0.24939806  0.38203189    -0.28700
N348        N  0.40984092  0.22221347  0.29803072    -0.45300
C349        C  0.36732779  0.20771679  0.28211702    -0.04600
C350        C  0.31901746  0.20541402  0.29248602    -0.22000
H351        H  0.25586772  0.20878935  0.33198802     0.19800
H352        H  0.45788163  0.24461358  0.34251873     0.18600
H353        H  0.43765353  0.26699947  0.38954106     0.14900
H354        H  0.27740706  0.19219779  0.28475198     0.14800
H355        H  0.26728729  0.23620971  0.37811560     0.32900
H356        H  0.44896302  0.22323057  0.29564954     0.35700
C357        C  0.18162505  0.36185558  0.04510964     0.21300
C358        C  0.19687140  0.40138136  0.06389680    -0.38600
C359        C  0.18765166  0.37579427  0.08598137     0.20300
C360        C  0.16455231  0.31546884  0.08913359     0.22900
C361        C  0.14877375  0.27580946  0.07043596    -0.39100
C362        C  0.15840281  0.30138561  0.04833431     0.21700
N363        N  0.19780512  0.37666605  0.02292794    -0.32400
C364        C  0.18724156  0.32600126  0.01207686    -0.09900
C365        C  0.16033711  0.27775730  0.02726708    -0.28700
N366        N  0.15931341  0.30206419  0.11176766    -0.45300
C367        C  0.17841990  0.35420123  0.12335946    -0.04600
C368        C  0.19729028  0.40134638  0.10764997    -0.22000
H369        H  0.21702634  0.44896999  0.06148284     0.19800
H370        H  0.13288455  0.22889207  0.07291501     0.18600
H371        H  0.15432347  0.23393344  0.02454382     0.14900
H372        H  0.21187643  0.44748825  0.11137694     0.14800
H373        H  0.22425415  0.41998181  0.01674068     0.32900
H374        H  0.14061911  0.25918255  0.11857889     0.35700
C375        C  0.38876551  0.18074970  0.08620927     0.21300
C376        C  0.42012971  0.19648319  0.06533889    -0.38600
C377        C  0.38663887  0.17951865  0.04497774     0.20300
C378        C  0.32655991  0.14828611  0.04544912     0.22900
C379        C  0.29543917  0.13245719  0.06630802    -0.39100
C380        C  0.32887363  0.15040978  0.08653033     0.21700
N381        N  0.41007343  0.19227707  0.10791546    -0.32400
C382        C  0.36319058  0.16894969  0.12224271    -0.09900
C383        C  0.31183838  0.14302245  0.10927745    -0.28700
N384        N  0.30509655  0.14821714  0.02446928    -0.45300
C385        C  0.35134643  0.18183580  0.01061517    -0.04600
C386        C  0.40298854  0.20012102  0.02266997    -0.22000
H387        H  0.46706669  0.22294223  0.06498148     0.19800
H388        H  0.24856104  0.11067342  0.06675131     0.18600
H389        H  0.26750024  0.11850866  0.11541100     0.14900
H390        H  0.44614178  0.23405698  0.01727478     0.14800
H391        H  0.45378460  0.21235945  0.11248834     0.32900
H392        H  0.26211373  0.13593029  0.02102948     0.35700
C393        C  0.04446903  0.06852315  0.08701230     0.21300
C394        C  0.03583210  0.09319239  0.06691719    -0.38600
C395        C  0.54394618  0.07162641  0.04580502     0.20300
C396        C  0.03373069  0.49630559  0.04660855     0.22900
C397        C  0.05241179  0.48198453  0.06697306    -0.39100
C398        C  0.06073308  0.02626275  0.08611252     0.21700
N399        N  0.03863646  0.08103862  0.10906560    -0.32400
C400        C  0.05205536  0.04716661  0.12255308    -0.09900
C401        C  0.06556971  0.01187273  0.10867705    -0.28700
N402        N  0.52645204  0.47027862  0.02583742    -0.45300
C403        C  0.49590185  0.48786282  0.01281848    -0.04600
C404        C  0.48562834  0.52746881  0.02522262    -0.22000
H405        H  0.02071595  0.12444690  0.06767389     0.19800
H406        H  0.06935646  0.45224694  0.06696977     0.18600
H407        H  0.07979741  0.98185731  0.11419059     0.14900
H408        H  0.50165572  0.09717456  0.01954569     0.14800
H409        H  0.02960473  0.11363786  0.11444459     0.32900
H410        H  0.53356259  0.43541766  0.02201395     0.35700
C411        C  0.05716370  0.55137591  0.14771772     0.04100
C412        C  0.09644595  0.53909386  0.15919562    -0.12100
C413        C  0.13097075  0.57671253  0.17726689     0.01600
C414        C  0.12922132  0.62871798  0.18034969    -0.10600
C415        C  0.07646072  0.62616312  0.17699309     0.04100
C416        C  0.04139833  0.58904660  0.15899354    -0.10000
H417        H  0.10161164  0.50255427  0.15365519     0.09700
H418        H  0.16684263  0.66905476  0.18616590     0.07200
H419        H  0.00382428  0.59083536  0.15342591     0.07000
C420        C  0.19626759  0.52905998  0.22713372     0.46400
H421        H  0.19635243  0.52853550  0.24633566    -0.02600
C422        C  0.19654083  0.52944213  0.18213074     0.46500
H423        H  0.19715241  0.52994309  0.16289328    -0.02600
C424        C  0.25759690  0.55980231  0.21677063    -0.16300
C425        C  0.16702369  0.96643212  0.21850872    -0.16100
C426        C  0.16628271  0.56071884  0.21688030    -0.16400
C427        C  0.25772782  0.56030756  0.19269084    -0.16400
C428        C  0.16691589  0.96637957  0.19436291    -0.16000
C429        C  0.16630348  0.56076099  0.19262960    -0.16300
C430        C  0.02655050  0.69031100  0.18170301     0.46400
H431        H  0.02614714  0.68989413  0.16246145    -0.02600
C432        C  0.02722637  0.69101842  0.22669906     0.46500
H433        H  0.02815601  0.69192314  0.24588967    -0.02600
C434        C  0.05802047  0.75345850  0.19197028    -0.16300
C435        C  0.46522661  0.65912422  0.19233779    -0.16100
C436        C  0.05728018  0.65953982  0.19220008    -0.16400
C437        C  0.05832242  0.75364550  0.21611156    -0.16400
C438        C  0.46562186  0.65902102  0.21654370    -0.16000
C439        C  0.05759554  0.66002166  0.21637964    -0.16300
C440        C  0.36466017  0.67682614  0.15079589     0.04100
C441        C  0.31166541  0.63689742  0.16173533    -0.12100
C442        C  0.30998578  0.59596015  0.17778545     0.01600
C443        C  0.36023564  0.59276756  0.17993093    -0.10600
C444        C  0.41388001  0.64518000  0.17742483     0.04100
C445        C  0.41646017  0.68620551  0.16105686    -0.10000
H446        H  0.27193433  0.63558651  0.15718232     0.09700
H447        H  0.35778222  0.55205823  0.18509450     0.07200
H448        H  0.45793914  0.72374794  0.15593136     0.07000
C449        C  0.16828769  0.86241922  0.14826207     0.04100
C450        C  0.18480061  0.91469334  0.16113649    -0.12100
C451        C  0.14885945  0.91343013  0.17907148     0.01600
C452        C  0.09575281  0.86072113  0.18173052    -0.10600
C453        C  0.09280644  0.80700641  0.17689363     0.04100
C454        C  0.12702359  0.80735281  0.15827876    -0.10000
H455        H  0.22320797  0.95630402  0.15658267     0.09700
H456        H  0.05872698  0.86102229  0.18864861     0.07200
H457        H  0.12090645  0.76595272  0.15146143     0.07000
C458        C  0.36412268  0.65474926  0.26436408     0.04100
C459        C  0.41625694  0.67097568  0.25246096    -0.12100
C460        C  0.41398388  0.63985864  0.23213445     0.01600
C461        C  0.36042716  0.58961926  0.22719292    -0.10600
C462        C  0.31011114  0.59079134  0.23202186     0.04100
C463        C  0.31150545  0.62213610  0.25200445    -0.10000
H464        H  0.45739087  0.70507400  0.25939648     0.09700
H465        H  0.35801740  0.55102254  0.21953887     0.07200
H466        H  0.27206211  0.61865194  0.25852161     0.07000
C467        C  0.17049595  0.85550259  0.26043339     0.04100
C468        C  0.13200460  0.80365918  0.24796473    -0.12100
C469        C  0.09557539  0.80620058  0.23119509     0.01600
C470        C  0.09644376  0.85982931  0.22928899    -0.10600
C471        C  0.14859568  0.91268368  0.23339853     0.04100
C472        C  0.18435403  0.91108668  0.25086467    -0.10000
H473        H  0.12792626  0.76136946  0.25200125     0.09700
H474        H  0.05914129  0.86086551  0.22319801     0.07200
H475        H  0.22093867  0.95202150  0.25732100     0.07000
C476        C  0.06860275  0.56568695  0.26462999     0.04100
C477        C  0.04927870  0.59896677  0.25227983    -0.12100
C478        C  0.07869489  0.62899891  0.23196395     0.01600
C479        C  0.13005030  0.62984497  0.22743015    -0.10600
C480        C  0.13319387  0.57956772  0.23237886     0.04100
C481        C  0.10417306  0.54873582  0.25270463    -0.10000
H482        H  0.01389430  0.60328680  0.25895289     0.09700
H483        H  0.16692220  0.66889093  0.22047448     0.07200
H484        H  0.11138654  0.51481596  0.25974226     0.07000
Zn485      Zn  0.34694338  0.75134417  0.46457440     1.49700
Zn486      Zn  0.34231539  0.81446959  0.41963198     1.49400
Zn487      Zn  0.27214148  0.81811126  0.46201176     1.49100
Zn488      Zn  0.41244441  0.89473628  0.46200426     1.49500
O489        O  0.34335498  0.81972879  0.45249359    -1.83200
O490        O  0.35628067  0.70140812  0.43955686    -0.73800
O491        O  0.27265862  0.80846836  0.40594742    -0.73600
O492        O  0.22627538  0.74753930  0.48271200    -0.73100
O493        O  0.34646480  0.74609227  0.40871904    -0.73800
O494        O  0.27667548  0.70125001  0.48426971    -0.73400
O495        O  0.22228565  0.81722348  0.43467651    -0.74000
O496        O  0.38913342  0.94146475  0.48230190    -0.73400
O497        O  0.40985278  0.88377295  0.40588918    -0.74100
O498        O  0.29271326  0.88621360  0.48392388    -0.73500
O499        O  0.46243597  0.94397044  0.43465110    -0.74000
O500        O  0.45926042  0.87821797  0.48468328    -0.73900
O501        O  0.41168976  0.77948025  0.48751653    -0.73700
C502        C  0.35366633  0.70625908  0.41771687     0.78100
C503        C  0.22955404  0.81131935  0.41319416     0.78600
C504        C  0.23475863  0.70746161  0.49094945     0.77500
C505        C  0.34077244  0.92979622  0.49098575     0.77900
C506        C  0.45381155  0.93108196  0.41315870     0.79100
C507        C  0.45115313  0.83076576  0.49426728     0.78100
Zn508      Zn  0.29104586  0.87930859  0.94649783     1.49700
Zn509      Zn  0.43247883  0.95853741  0.94571698     1.49400
Zn510      Zn  0.36481047  0.89062968  0.98952310     1.49100
Zn511      Zn  0.36626696  0.81401506  0.94832938     1.49500
O512        O  0.36361124  0.88550896  0.95684856    -1.83200
O513        O  0.31122898  0.94757499  0.92494813    -0.73800
O514        O  0.49082275  0.00783747  0.97175007    -0.73600
O515        O  0.30318983  0.90134967  0.00178721    -0.73100
O516        O  0.40746001  0.00666215  0.92694879    -0.73800
O517        O  0.23959040  0.87761960  0.97321294    -0.73400
O518        O  0.43832585  0.95444141  0.00175183    -0.74000
O519        O  0.36830887  0.76691658  0.97661809    -0.73400
O520        O  0.47098266  0.93461263  0.92153586    -0.74100
O521        O  0.35417693  0.81834392  0.00387026    -0.73500
O522        O  0.43226944  0.83679279  0.92599512    -0.74000
O523        O  0.29787607  0.76150163  0.92778431    -0.73900
O524        O  0.24772033  0.80787653  0.92580263    -0.73700
C525        C  0.35838586  0.99324842  0.91838815     0.78100
C526        C  0.48441237  0.99743021  0.99348997     0.78600
C527        C  0.25449920  0.89084901  0.99434735     0.77500
C528        C  0.35925401  0.77479699  0.99769376     0.77900
C529        C  0.46574704  0.88527455  0.91537433     0.79100
C530        C  0.25727607  0.76719026  0.91915362     0.78100
C531        C  0.36308435  0.55298904  0.64831772     0.04100
C532        C  0.41561383  0.58659316  0.66064991    -0.12100
C533        C  0.41689803  0.61996115  0.67998233     0.01600
C534        C  0.36696145  0.62239222  0.68396678    -0.10600
C535        C  0.31335294  0.57193834  0.67946728     0.04100
C536        C  0.31091214  0.53837262  0.65991371    -0.10000
H537        H  0.45513730  0.58958479  0.65448357     0.09700
H538        H  0.36965263  0.66186918  0.69085591     0.07200
H539        H  0.26952348  0.50392657  0.65327454     0.07000
C540        C  0.36233887  0.54332407  0.76330936     0.04100
C541        C  0.41592645  0.58244166  0.75241627    -0.12100
C542        C  0.41760398  0.61977763  0.73458377     0.01600
C543        C  0.36694431  0.62159340  0.73119709    -0.10600
C544        C  0.31341888  0.56930028  0.73415755     0.04100
C545        C  0.31081721  0.53088794  0.75171371    -0.10000
H546        H  0.45564216  0.58511064  0.75804264     0.09700
H547        H  0.36915627  0.66160134  0.72525449     0.07200
H548        H  0.26927473  0.49355830  0.75682801     0.07000
C549        C  0.20066389  0.52485020  0.68442839     0.46400
H550        H  0.20055433  0.52532817  0.66520948    -0.02600
C551        C  0.20018427  0.52332251  0.72945575     0.46500
H552        H  0.19978710  0.52258655  0.74869958    -0.02600
C553        C  0.16296719  0.96095220  0.69079760    -0.16300
C554        C  0.26188161  0.55471126  0.69484441    -0.16100
C555        C  0.17119150  0.55646830  0.69515095    -0.16400
C556        C  0.16339685  0.96243926  0.71489380    -0.16400
C557        C  0.26185027  0.55395786  0.71904281    -0.16000
C558        C  0.17113270  0.55610240  0.71929967    -0.16300
C559        C  0.03167654  0.68686690  0.72936968     0.46400
H560        H  0.03219696  0.68780478  0.74861397    -0.02600
C561        C  0.03022304  0.68486320  0.68431183     0.46500
H562        H  0.02945240  0.68436363  0.66508628    -0.02600
C563        C  0.46986733  0.65358592  0.71923465    -0.16300
C564        C  0.06090607  0.74940432  0.71847720    -0.16100
C565        C  0.06312640  0.65652554  0.71889088    -0.16400
C566        C  0.46936137  0.65279481  0.69508561    -0.16400
C567        C  0.06010037  0.74806852  0.69433349    -0.16000
C568        C  0.06212180  0.65540733  0.69468212    -0.16300
C569        C  0.04543762  0.84857558  0.65054320     0.04100
C570        C  0.08720432  0.90412168  0.66004528    -0.12100
C571        C  0.12652432  0.90632917  0.67658693     0.01600
C572        C  0.12653498  0.85373468  0.68066391    -0.10600
C573        C  0.07420065  0.79968013  0.67884778     0.04100
C574        C  0.03435623  0.79648715  0.66229174    -0.10000
H575        H  0.09056191  0.94506303  0.65424374     0.09700
H576        H  0.16493077  0.85523420  0.68699278     0.07200
H577        H  0.99632725  0.75400117  0.65815389     0.07000
C578        C  0.16474954  0.65576353  0.64822460     0.04100
C579        C  0.12665623  0.67018916  0.65959430    -0.12100
C580        C  0.09577092  0.63726178  0.67925086     0.01600
C581        C  0.09897905  0.58682453  0.68392520    -0.10600
C582        C  0.15122878  0.58892298  0.67996067     0.04100
C583        C  0.18337254  0.62207099  0.66066701    -0.10000
H584        H  0.11974823  0.70458678  0.65282391     0.09700
H585        H  0.06234209  0.54767318  0.69097567     0.07200
H586        H  0.22040166  0.61952742  0.65489781     0.07000
C587        C  0.17515010  0.66829560  0.76299146     0.04100
C588        C  0.18906373  0.62836503  0.75230694    -0.12100
C589        C  0.15302994  0.59047316  0.73460914     0.01600
C590        C  0.10067449  0.58889904  0.73120228    -0.10600
C591        C  0.09961869  0.64143647  0.73398788     0.04100
C592        C  0.13585466  0.68041826  0.75135602    -0.10000
H593        H  0.22611527  0.62570033  0.75794132     0.09700
H594        H  0.06280282  0.54880658  0.72537708     0.07200
H595        H  0.13186774  0.71809937  0.75625858     0.07000
C596        C  0.05279781  0.85950073  0.75978727     0.04100
C597        C  0.04091345  0.80436971  0.75028631    -0.12100
C598        C  0.07751588  0.80365480  0.73293176     0.01600
C599        C  0.12846408  0.85741506  0.72841421    -0.10600
C600        C  0.12789656  0.91029948  0.73049348     0.04100
C601        C  0.09131824  0.91194495  0.74752951    -0.10000
H602        H  0.00453299  0.76291937  0.75641133     0.09700
H603        H  0.16594341  0.85760971  0.72170389     0.07200
H604        H  0.09433431  0.95381900  0.75158740     0.07000
C605        C  0.21742771  0.68703283  0.82269412     0.21300
C606        C  0.23664289  0.67430566  0.84333864    -0.38600
C607        C  0.22422425  0.69490437  0.86380439     0.20300
C608        C  0.19465704  0.72546783  0.86365928     0.22900
C609        C  0.17562110  0.73819567  0.84303618    -0.39100
C610        C  0.18835709  0.71796633  0.82264634     0.21700
N611        N  0.22149790  0.67022705  0.80106907    -0.32400
C612        C  0.19422239  0.69010834  0.78704929    -0.09900
C613        C  0.17385740  0.72096609  0.80008273    -0.28700
N614        N  0.19494034  0.74710144  0.88480228    -0.45300
C615        C  0.22662166  0.73215103  0.89846876    -0.04600
C616        C  0.24398992  0.69781377  0.88609329    -0.22000
H617        H  0.26068655  0.65134650  0.84341557     0.19800
H618        H  0.15359759  0.76321681  0.84283988     0.18600
H619        H  0.14777226  0.73921413  0.79434733     0.14900
H620        H  0.27415396  0.68442814  0.89169405     0.14800
H621        H  0.23840957  0.64337584  0.79658716     0.32900
H622        H  0.18103470  0.77681976  0.88883585     0.35700
C623        C  0.52186192  0.90672771  0.85825739     0.21300
C624        C  0.03936447  0.93669749  0.83696606    -0.38600
C625        C  0.03076586  0.90085463  0.81749374     0.20300
C626        C  0.00684064  0.83997796  0.81906788     0.22900
C627        C  0.98930768  0.80995657  0.84035635    -0.39100
C628        C  0.99774784  0.84572675  0.85984844     0.21700
N629        N  0.51992147  0.92972664  0.87885693    -0.32400
C630        C  0.49333648  0.88293210  0.89362891    -0.09900
C631        C  0.47999478  0.82995499  0.88245251    -0.28700
N632        N  0.00650872  0.81664329  0.79824844    -0.45300
C633        C  0.03115072  0.86307358  0.78316985    -0.04600
C634        C  0.04589267  0.91627050  0.79469132    -0.22000
H635        H  0.55783288  0.98435447  0.83562854     0.19800
H636        H  0.96990067  0.76217032  0.84161632     0.18600
H637        H  0.45474303  0.78517995  0.88923136     0.15500
H638        H  0.06877415  0.96113539  0.78793253     0.14800
H639        H  0.53076768  0.97360073  0.88204523     0.32900
H640        H  0.99409773  0.77235552  0.79506899     0.35700
C641        C  0.32714327  0.02444559  0.86297974     0.21300
C642        C  0.29407526  0.00415029  0.84260062    -0.38600
C643        C  0.32780412  0.49852531  0.82342876     0.20300
C644        C  0.38772133  0.52897935  0.82314259     0.22900
C645        C  0.42046289  0.54233167  0.84356938    -0.39100
C646        C  0.38835167  0.52281435  0.86420906     0.21700
N647        N  0.30854985  0.00466109  0.88454835    -0.32400
C648        C  0.35693412  0.02559849  0.89779557    -0.09900
C649        C  0.40656295  0.06247236  0.88476580    -0.28700
N650        N  0.40776956  0.54405094  0.80138389    -0.45300
C651        C  0.36019172  0.52340885  0.78757796    -0.04600
C652        C  0.30948374  0.49396632  0.80090320    -0.22000
H653        H  0.24740533  0.97490422  0.84292019     0.19800
H654        H  0.46737037  0.56457406  0.84334967     0.18600
H655        H  0.44968756  0.53239770  0.89148087     0.14900
H656        H  0.26502540  0.47545222  0.79531781     0.14800
H657        H  0.26643167  0.97166533  0.88910357     0.32900
H658        H  0.45134441  0.57011732  0.79664717     0.35700
C659        C  0.16533638  0.67186830  0.54505952     0.21300
C660        C  0.14680091  0.68989223  0.56456808    -0.38600
C661        C  0.16193273  0.67706117  0.58609755     0.20300
C662        C  0.19240584  0.64779640  0.58805051     0.22900
C663        C  0.21001601  0.62870856  0.56861637    -0.39100
C664        C  0.19564933  0.64224780  0.54705480     0.21700
N665        N  0.16717600  0.68990502  0.52315746    -0.32400
C666        C  0.20072905  0.67382127  0.51126395    -0.09900
C667        C  0.21716335  0.64170760  0.52544017    -0.28700
N668        N  0.20183340  0.64134885  0.61037729    -0.45300
C669        C  0.17661742  0.66612806  0.62298302    -0.04600
C670        C  0.15164619  0.68933234  0.60822655    -0.22000
H671        H  0.12495134  0.71493321  0.56307599     0.19800
H672        H  0.23584559  0.60783314  0.57016581     0.18600
H673        H  0.24903600  0.62918652  0.52156222     0.14900
H674        H  0.12638795  0.70944029  0.61287738     0.14800
H675        H  0.15410853  0.71928898  0.51761627     0.32900
H676        H  0.22166302  0.61844417  0.61639357     0.35700
C677        C  0.39103451  0.57406026  0.54564873     0.21300
C678        C  0.42487676  0.59120516  0.56586437    -0.38600
C679        C  0.39420314  0.56976651  0.58669348     0.20300
C680        C  0.33443883  0.53482635  0.58743802     0.22900
C681        C  0.28631002  0.96133801  0.56871746    -0.39100
C682        C  0.31467144  0.96990379  0.54738130     0.21700
N683        N  0.39098732  0.99802869  0.52386732    -0.32400
C684        C  0.34141108  0.96220888  0.51197489    -0.09900
C685        C  0.29280345  0.94490882  0.52599544    -0.28700
N686        N  0.31578386  0.51959570  0.60934379    -0.45300
C687        C  0.36407587  0.54542229  0.62285139    -0.04600
C688        C  0.41388584  0.57677108  0.60911660    -0.22000
H689        H  0.47185020  0.61638901  0.56532089     0.19800
H690        H  0.23950171  0.93557219  0.57026022     0.18600
H691        H  0.24804829  0.91246231  0.52196886     0.14900
H692        H  0.45844269  0.60434482  0.61472563     0.14800
H693        H  0.45349510  0.59334457  0.51917540     0.32900
H694        H  0.27248741  0.49525075  0.61461696     0.35700
C695        C  0.01052935  0.86861419  0.55039507     0.21300
C696        C  0.02464594  0.90307699  0.57062642    -0.38600
C697        C  0.01768129  0.87254177  0.59139937     0.20300
C698        C  0.99842090  0.81240993  0.59199181     0.22900
C699        C  0.48406888  0.77777291  0.57177317    -0.39100
C700        C  0.49065505  0.80823410  0.55097103     0.21700
N701        N  0.50679419  0.88571592  0.52889326    -0.32400
C702        C  0.48249637  0.83560845  0.51576208    -0.09900
C703        C  0.47326585  0.78659615  0.52884539    -0.28700
N704        N  0.99961001  0.79496342  0.61371955    -0.45300
C705        C  0.02087398  0.84459770  0.62715403    -0.04600
C706        C  0.03131116  0.89362830  0.61372828    -0.22000
H707        H  0.03933581  0.95010922  0.57023380     0.19800
H708        H  0.46807742  0.73044966  0.57224067     0.18600
H709        H  0.45001549  0.74025905  0.52363503     0.14900
H710        H  0.05110689  0.93969400  0.61900531     0.14800
H711        H  0.01354153  0.92735878  0.52416401     0.32900
H712        H  0.99143691  0.75287072  0.61853349     0.35700
C713        C  0.05474746  0.58199967  0.32559234     0.21300
C714        C  0.54517881  0.60622469  0.34567424    -0.38600
C715        C  0.55337350  0.58493710  0.36678307     0.20300
C716        C  0.02598502  0.97616009  0.36059561     0.22900
C717        C  0.08042138  0.51940933  0.34760709    -0.39100
C718        C  0.07169381  0.54028077  0.32655533     0.21700
N719        N  0.04765233  0.59309835  0.30351252    -0.32400
C720        C  0.06031695  0.55829945  0.29013521    -0.09900
C721        C  0.07545836  0.52460438  0.30407471    -0.28700
N722        N  0.51959163  0.94893098  0.38095430    -0.45300
C723        C  0.49422129  0.96982273  0.39544961    -0.04600
C724        C  0.48658949  0.01273175  0.38439752    -0.22000
H725        H  0.52904238  0.63662134  0.34490744     0.19800
H726        H  0.09082697  0.48451571  0.34829360     0.18600
H727        H  0.08904359  0.49395292  0.29864347     0.14900
H728        H  0.46089850  0.03122267  0.39052142     0.14800
H729        H  0.03724894  0.62454732  0.29800950     0.32900
H730        H  0.02384016  0.91184746  0.38374244     0.35700
C731        C  0.18575683  0.84840464  0.36292404     0.21300
C732        C  0.20019336  0.88995077  0.34499653    -0.38600
C733        C  0.19377714  0.86754016  0.32240556     0.20300
C734        C  0.17429609  0.80832747  0.31798539     0.22900
C735        C  0.15950561  0.76667019  0.33581918    -0.39100
C736        C  0.16594270  0.78901713  0.35842564     0.21700
N737        N  0.19919583  0.86071702  0.38546941    -0.32400
C738        C  0.19004990  0.80955559  0.39532397    -0.09900
C739        C  0.16695055  0.76338247  0.37905603    -0.28700
N740        N  0.17017627  0.79778227  0.29510678    -0.45300
C741        C  0.18602664  0.85057199  0.28466582    -0.04600
C742        C  0.20217723  0.89535063  0.30132032    -0.22000
H743        H  0.21728195  0.93676327  0.34840479     0.19800
H744        H  0.14631770  0.72075017  0.33234338     0.18600
H745        H  0.16277184  0.72014621  0.38097986     0.14900
H746        H  0.21323564  0.94091269  0.29858337     0.14800
H747        H  0.22294149  0.90333979  0.39266216     0.32900
H748        H  0.15386108  0.75601250  0.28744032     0.35700
C749        C  0.33313197  0.63149263  0.36682809     0.21300
C750        C  0.30043173  0.61484789  0.34638699    -0.38600
C751        C  0.33207265  0.63565747  0.32582072     0.20300
C752        C  0.39188830  0.66975365  0.32542453     0.22900
C753        C  0.42491429  0.68626501  0.34585029    -0.39100
C754        C  0.39312344  0.66624995  0.36658566     0.21700
N755        N  0.31247318  0.62997960  0.38813350    -0.32400
C756        C  0.35884576  0.66651662  0.40144927    -0.09900
C757        C  0.41015232  0.68753970  0.38878275    -0.28700
N758        N  0.41126753  0.68513779  0.30358147    -0.45300
C759        C  0.36319716  0.66056591  0.28991078    -0.04600
C760        C  0.31302922  0.62953669  0.30339890    -0.22000
H761        H  0.25343580  0.59072660  0.34657290     0.19800
H762        H  0.47152797  0.71597502  0.34568973     0.18600
H763        H  0.45255945  0.72414375  0.39362241     0.14900
H764        H  0.26844507  0.60319893  0.29767367     0.14800
H765        H  0.26913597  0.61535601  0.39205856     0.32900
H766        H  0.45469777  0.70924961  0.29846150     0.35700
C767        C  0.21343097  0.91411230  0.04773017     0.21300
C768        C  0.23241135  0.94294195  0.06918260    -0.38600
C769        C  0.21162698  0.90615533  0.08869543     0.20300
C770        C  0.17444710  0.84538402  0.08708676     0.22900
C771        C  0.15547431  0.81639039  0.06561826    -0.39100
C772        C  0.17654572  0.85316740  0.04599627     0.21700
N773        N  0.23588841  0.93744904  0.02697028    -0.32400
C774        C  0.21552496  0.89113929  0.01191758    -0.09900
C775        C  0.17626254  0.83811641  0.02306228    -0.28700
N776        N  0.15908150  0.82093971  0.10827496    -0.45300
C777        C  0.18613442  0.86666218  0.12362247    -0.04600
C778        C  0.22025281  0.92043520  0.11181518    -0.22000
H779        H  0.26281156  0.99035339  0.07054624     0.19800
H780        H  0.12807974  0.76849791  0.06427163     0.18600
H781        H  0.15972560  0.79344971  0.01648554     0.14900
H782        H  0.24453876  0.96501307  0.11885885     0.14800
H783        H  0.27109924  0.98035513  0.02414936     0.32900
H784        H  0.12855202  0.77648170  0.11182610     0.35700
C785        C  0.38939572  0.71729055  0.09121286     0.21300
C786        C  0.41859307  0.72856228  0.06991215    -0.38600
C787        C  0.38561692  0.72318948  0.05019565     0.20300
C788        C  0.32801947  0.70750586  0.05173440     0.22900
C789        C  0.29904348  0.69657830  0.07301796    -0.39100
C790        C  0.33201010  0.70212669  0.09264070     0.21700
N791        N  0.41007205  0.71649037  0.11228126    -0.32400
C792        C  0.36526066  0.69977714  0.12730634    -0.09900
C793        C  0.31605259  0.69154048  0.11556327    -0.28700
N794        N  0.30860994  0.71347518  0.03114913    -0.45300
C795        C  0.35417137  0.73466430  0.01632753    -0.04600
C796        C  0.40278334  0.73997742  0.02753041    -0.22000
H797        H  0.46396353  0.74186332  0.06882965     0.19800
H798        H  0.25436367  0.68569271  0.07422812     0.18600
H799        H  0.27292016  0.67539994  0.12236649     0.14900
H800        H  0.44693067  0.76248247  0.02110112     0.14800
H801        H  0.45079541  0.72210576  0.11575452     0.32900
H802        H  0.26933711  0.71178364  0.02821681     0.35700
C803        C  0.02050172  0.54151495  0.08769451     0.21300
C804        C  0.00212690  0.55623986  0.06734782    -0.38600
C805        C  0.50935503  0.53190958  0.04681747     0.20300
C806        C  0.06005314  0.02914490  0.04486389     0.22900
C807        C  0.06938505  0.00506223  0.06503404    -0.39100
C808        C  0.04454492  0.50574525  0.08747710     0.21700
N809        N  0.01759927  0.55827786  0.10940294    -0.32400
C810        C  0.04031454  0.53329493  0.12326532    -0.09900
C811        C  0.05722913  0.49977474  0.11003620    -0.28700
N812        N  0.55274787  0.00683194  0.02332878    -0.45300
C813        C  0.52964720  0.03314016  0.01049996    -0.04600
C814        C  0.52583085  0.07566542  0.02386585    -0.22000
H815        H  0.98113482  0.58227151  0.06762722     0.19800
H816        H  0.07964515  0.97005594  0.06434992     0.18600
H817        H  0.07857635  0.47642280  0.11579195     0.14900
H818        H  0.45618039  0.54254666  0.02051289     0.14800
H819        H  0.00373016  0.58759180  0.11412373     0.32900
H820        H  0.55309681  0.96827035  0.01881835     0.35700
C821        C  0.56431142  0.05845770  0.14775170     0.04100
C822        C  0.60221262  0.04401620  0.15919537    -0.12100
C823        C  0.63369538  0.07774343  0.17867351     0.01600
C824        C  0.63071605  0.12842937  0.18324465    -0.10600
C825        C  0.57871018  0.12677945  0.17922261     0.04100
C826        C  0.54654283  0.09342491  0.15991353    -0.10000
H827        H  0.60907958  0.00949658  0.15245775     0.09700
H828        H  0.66746073  0.16755294  0.19027461     0.07200
H829        H  0.51007994  0.09657897  0.15380754     0.07000
C830        C  0.69823423  0.02957941  0.22889456     0.46400
H831        H  0.69847334  0.02996841  0.24814697    -0.02600
C832        C  0.69833045  0.02904412  0.18386240     0.46500
H833        H  0.69857760  0.02869227  0.16464532    -0.02600
C834        C  0.75958840  0.06087543  0.21843360    -0.16300
C835        C  0.66495033  0.46639048  0.21655855    -0.16100
C836        C  0.66782651  0.06063795  0.21826352    -0.16400
C837        C  0.75956969  0.06015891  0.19436875    -0.16400
C838        C  0.66495074  0.46640652  0.19240767    -0.16000
C839        C  0.66797061  0.06039027  0.19406126    -0.16300
C840        C  0.52914759  0.19090499  0.18404826     0.46400
H841        H  0.52966135  0.19091832  0.16483726    -0.02600
C842        C  0.52866434  0.19124453  0.22909819     0.46500
H843        H  0.52835066  0.19125681  0.24834865    -0.02600
C844        C  0.56084408  0.25378969  0.19448505    -0.16300
C845        C  0.96762470  0.16012459  0.19427047    -0.16100
C846        C  0.55884431  0.15944064  0.19453927    -0.16400
C847        C  0.56080954  0.25406342  0.21867630    -0.16400
C848        C  0.96731655  0.16076271  0.21849705    -0.16000
C849        C  0.55859772  0.15950333  0.21868794    -0.16300
C850        C  0.86535728  0.15882969  0.14746467     0.04100
C851        C  0.81318329  0.12532890  0.15999613    -0.12100
C852        C  0.81209036  0.09227548  0.17925068     0.01600
C853        C  0.86253223  0.09101263  0.18362254    -0.10600
C854        C  0.91597417  0.14145681  0.17873690     0.04100
C855        C  0.91789646  0.17354618  0.15877401    -0.10000
H856        H  0.77359520  0.12268507  0.15424420     0.09700
H857        H  0.86039908  0.05266685  0.19133175     0.07200
H858        H  0.95900752  0.20780083  0.15184943     0.07000
C859        C  0.66538440  0.35754613  0.14817555     0.04100
C860        C  0.67990770  0.41249766  0.15863082    -0.12100
C861        C  0.64625857  0.41285579  0.17730503     0.01600
C862        C  0.59543037  0.35934749  0.18197017    -0.10600
C863        C  0.59549855  0.30648651  0.17908967     0.04100
C864        C  0.62939796  0.30500056  0.16080975    -0.10000
H865        H  0.71528249  0.45387386  0.15193921     0.09700
H866        H  0.55809644  0.35921777  0.18876645     0.07200
H867        H  0.62559816  0.26324178  0.15592277     0.07000
C868        C  0.86667819  0.18097354  0.25939282     0.04100
C869        C  0.91856535  0.18943495  0.24946403    -0.12100
C870        C  0.91605046  0.14759174  0.23341054     0.01600
C871        C  0.86246939  0.09496338  0.23106656    -0.10600
C872        C  0.81191160  0.09763983  0.23324217     0.04100
C873        C  0.81356092  0.13959690  0.24884335    -0.10000
H874        H  0.96003548  0.22722961  0.25448911     0.09700
H875        H  0.86026055  0.05434087  0.22586016     0.07200
H876        H  0.77365324  0.13806668  0.25332397     0.07000
C877        C  0.67234107  0.36441724  0.26174014     0.04100
C878        C  0.63115103  0.30888410  0.25194740    -0.12100
C879        C  0.59544504  0.30765430  0.23377880     0.01600
C880        C  0.59640998  0.36054632  0.22951589    -0.10600
C881        C  0.64904878  0.41389427  0.23170145     0.04100
C882        C  0.68698172  0.41618096  0.24891087    -0.10000
H883        H  0.62614150  0.26785549  0.25859945     0.09700
H884        H  0.55833727  0.35975716  0.22325059     0.07200
H885        H  0.72538660  0.45824027  0.25303853     0.07000
C886        C  0.55392277  0.04657770  0.26154558     0.04100
C887        C  0.54030221  0.08675013  0.25113314    -0.12100
C888        C  0.57694884  0.12548956  0.23384024     0.01600
C889        C  0.62974967  0.12786078  0.23059078    -0.10600
C890        C  0.63117837  0.07552870  0.23327672     0.04100
C891        C  0.59433793  0.03568040  0.25022833    -0.10000
H892        H  0.50264221  0.08856029  0.25665572     0.09700
H893        H  0.66739043  0.16809168  0.22471653     0.07200
H894        H  0.59875393  0.99828880  0.25505897     0.07000
Zn895      Zn  0.87266555  0.32773323  0.46078439     1.49700
Zn896      Zn  0.87006460  0.40853992  0.42171056     1.49400
Zn897      Zn  0.79880509  0.39360327  0.46338710     1.49100
Zn898      Zn  0.94008423  0.47001883  0.46580976     1.49500
O899        O  0.87121555  0.40003136  0.45389862    -1.83200
O900        O  0.86951582  0.28259729  0.43125794    -0.73800
O901        O  0.81614585  0.43388665  0.41145877    -0.73600
O902        O  0.76052477  0.32691191  0.48601560    -0.73100
O903        O  0.84762959  0.33276401  0.40613991    -0.73800
O904        O  0.80643178  0.27645822  0.48216178    -0.73400
O905        O  0.74448607  0.38125591  0.43598850    -0.74000
O906        O  0.91483472  0.51747867  0.48462205    -0.73400
O907        O  0.94637387  0.46721106  0.40979564    -0.74100
O908        O  0.81794501  0.46580168  0.48263074    -0.73500
O909        O  0.99823246  0.51964145  0.44020324    -0.74000
O910        O  0.97709510  0.44257428  0.48923185    -0.73900
O911        O  0.93986585  0.34605448  0.48183630    -0.73700
C912        C  0.85448555  0.28949830  0.41106270     0.78100
C913        C  0.76272920  0.40704699  0.41649187     0.78600
C914        C  0.76921372  0.28542106  0.49217051     0.77500
C915        C  0.86530542  0.50845325  0.49081860     0.77900
C916        C  0.99250332  0.50947453  0.41844894     0.79100
C917        C  0.97239194  0.39260025  0.49373883     0.78100
Zn918      Zn  0.77507080  0.33825518  0.94659547     1.49700
Zn919      Zn  0.91555770  0.40410768  0.94706915     1.49400
Zn920      Zn  0.84193781  0.33280979  0.98975493     1.49100
Zn921      Zn  0.83846006  0.26028316  0.94583547     1.49500
O922        O  0.84257890  0.33378600  0.95683764    -1.83200
O923        O  0.80164601  0.41056860  0.92650725    -0.73800
O924        O  0.96741624  0.45334647  0.97401417    -0.73600
O925        O  0.77035547  0.32459903  0.00251240    -0.73100
O926        O  0.89807921  0.45516380  0.92691451    -0.73800
O927        O  0.72305238  0.33582722  0.97325817    -0.73400
O928        O  0.90722564  0.40545528  0.00316952    -0.74000
O929        O  0.84275707  0.20992722  0.97203166    -0.73400
O930        O  0.95755595  0.37995827  0.92477263    -0.74100
O931        O  0.84874580  0.26667034  0.00188446    -0.73500
O932        O  0.90238669  0.28124836  0.92275312    -0.74000
O933        O  0.76743194  0.21307196  0.92605123    -0.73900
O934        O  0.72907623  0.27111189  0.92437214    -0.73700
C935        C  0.85146061  0.45049108  0.91925319     0.78100
C936        C  0.95486033  0.44770201  0.99551148     0.78600
C937        C  0.72811884  0.32821946  0.99474893     0.77500
C938        C  0.84791126  0.22127584  0.99367570     0.77900
C939        C  0.94483522  0.33037552  0.91561387     0.79100
C940        C  0.73166945  0.22623573  0.91747264     0.78100
C941        C  0.85773966  0.04312903  0.64610364     0.04100
C942        C  0.91120017  0.08315534  0.65691627    -0.12100
C943        C  0.91261133  0.12085309  0.67463008     0.01600
C944        C  0.86177256  0.12234767  0.67796935    -0.10600
C945        C  0.80842717  0.06988028  0.67493798     0.04100
C946        C  0.80609022  0.03110938  0.65749459    -0.10000
H947        H  0.95100528  0.08574270  0.65141251     0.09700
H948        H  0.86365734  0.16221666  0.68396423     0.07200
H949        H  0.76466409  0.99335878  0.65255983     0.07000
C950        C  0.85755398  0.05292989  0.76055010     0.04100
C951        C  0.91057213  0.08837173  0.74872256    -0.12100
C952        C  0.91199100  0.12193965  0.72943951     0.01600
C953        C  0.86187628  0.12390962  0.72534389    -0.10600
C954        C  0.80835425  0.07308624  0.72961131     0.04100
C955        C  0.80574512  0.03871507  0.74880489    -0.10000
H956        H  0.95000004  0.09123933  0.75486397     0.09700
H957        H  0.86442572  0.16317498  0.71837361     0.07200
H958        H  0.76426331  0.00337253  0.75498494     0.07000
C959        C  0.69516718  0.02337002  0.67969347     0.46400
H960        H  0.69462694  0.02219327  0.66044738    -0.02600
C961        C  0.69568809  0.02574413  0.72475241     0.46500
H962        H  0.69546892  0.02655875  0.74397938    -0.02600
C963        C  0.66820274  0.46173877  0.69439128    -0.16300
C964        C  0.75683821  0.05442765  0.69006563    -0.16100
C965        C  0.66618280  0.05637276  0.68978244    -0.16400
C966        C  0.66764773  0.46067171  0.71852034    -0.16400
C967        C  0.75691603  0.05563910  0.71426503    -0.16000
C968        C  0.66631989  0.05715575  0.71393176    -0.16300
C969        C  0.52528100  0.18499490  0.72481523     0.46400
H970        H  0.52470248  0.18457769  0.74404027    -0.02600
C971        C  0.52658463  0.18654878  0.67979132     0.46500
H972        H  0.52708337  0.18727777  0.66054793    -0.02600
C973        C  0.96437205  0.15433866  0.71417367    -0.16300
C974        C  0.55683922  0.24809961  0.71486938    -0.16100
C975        C  0.55584383  0.15422148  0.71426805    -0.16400
C976        C  0.96480215  0.15490357  0.69000096    -0.16400
C977        C  0.55790092  0.24913720  0.69072139    -0.16000
C978        C  0.55660323  0.15490191  0.69010185    -0.16300
C979        C  0.55874377  0.36160147  0.64864566     0.04100
C980        C  0.59729861  0.41323707  0.66132409    -0.12100
C981        C  0.63200922  0.40990627  0.67873917     0.01600
C982        C  0.63021607  0.35589155  0.68090146    -0.10600
C983        C  0.57819336  0.30349846  0.67610542     0.04100
C984        C  0.54395900  0.30582977  0.65818386    -0.10000
H985        H  0.60162477  0.45567010  0.65727621     0.09700
H986        H  0.66662083  0.35423205  0.68768924     0.07200
H987        H  0.50711878  0.26517513  0.65174348     0.07000
C988        C  0.67207917  0.17091654  0.64701984     0.04100
C989        C  0.63116896  0.18118547  0.65832814    -0.12100
C990        C  0.59387082  0.14073280  0.67504777     0.01600
C991        C  0.59549823  0.08845508  0.67761168    -0.10600
C992        C  0.64840790  0.09092565  0.67448383     0.04100
C993        C  0.68555884  0.13038746  0.65738783    -0.10000
H994        H  0.62723294  0.21906391  0.65381023     0.09700
H995        H  0.55790688  0.04818749  0.68349140     0.07200
H996        H  0.72344314  0.12876905  0.65210249     0.07000
C997        C  0.66152204  0.15977953  0.75989816     0.04100
C998        C  0.67947812  0.12468458  0.74799500    -0.12100
C999        C  0.64675707  0.09018653  0.72899536     0.01600
C1000       C  0.59426777  0.08746252  0.72507450    -0.10600
C1001       C  0.59092028  0.13796447  0.72940357     0.04100
C1002       C  0.62328280  0.17329222  0.74832734    -0.10000
H1003       H  0.71642987  0.12229908  0.75398367     0.09700
H1004       H  0.55787211  0.04808484  0.71799499     0.07200
H1005       H  0.61687799  0.20852912  0.75454908     0.07000
C1006       C  0.55005358  0.35187669  0.75979640     0.04100
C1007       C  0.53582885  0.29907816  0.74767011    -0.12100
C1008       C  0.57377463  0.30031007  0.73053960     0.01600
C1009       C  0.62737673  0.35282185  0.72860981    -0.10600
C1010       C  0.63023750  0.40673718  0.73293589     0.04100
C1011       C  0.59290010  0.40659435  0.75006928    -0.10000
H1012       H  0.49690050  0.25748670  0.75182137     0.09700
H1013       H  0.66474425  0.35220069  0.72227662     0.07200
H1014       H  0.59802714  0.44828731  0.75600551     0.07000
C1015       C  0.68690230  0.15631477  0.82052304     0.21300
C1016       C  0.70207746  0.13761364  0.84069738    -0.38600
C1017       C  0.69123066  0.15757612  0.86163272     0.20300
C1018       C  0.66645763  0.19282133  0.86235728     0.22900
C1019       C  0.65057481  0.21074019  0.84215944    -0.39100
C1020       C  0.66215967  0.19143157  0.82126987     0.21700
N1021       N  0.69408782  0.14460253  0.79852621    -0.32400
C1022       C  0.67353530  0.17226828  0.78499544    -0.09900
C1023       C  0.65341794  0.20216659  0.79875855    -0.28700
N1024       N  0.66977102  0.21427687  0.88380171    -0.45300
C1025       C  0.69848031  0.19425812  0.89673535    -0.04600
C1026       C  0.71077846  0.15702272  0.88363304    -0.22000
H1027       H  0.72346140  0.11197495  0.84008780     0.19800
H1028       H  0.63311032  0.24000993  0.84263894     0.18600
H1029       H  0.63271792  0.22638085  0.79327880     0.14900
H1030       H  0.73838288  0.13979854  0.88852012     0.14800
H1031       H  0.70945003  0.11687607  0.79329053     0.32900
H1032       H  0.66029283  0.24704107  0.88846505     0.35700
C1033       C  0.01248008  0.36562999  0.86067889     0.21300
C1034       C  0.53700868  0.40338641  0.84152437    -0.38600
C1035       C  0.52662117  0.37508098  0.81993562     0.20300
C1036       C  0.49454545  0.31391112  0.81757799     0.22900
C1037       C  0.46996096  0.27600992  0.83673709    -0.39100
C1038       C  0.48009692  0.30432906  0.85836764     0.21700
N1039       N  0.01031846  0.38195766  0.88254739    -0.32400
C1040       C  0.97501808  0.33093252  0.89421661    -0.09900
C1041       C  0.95655009  0.28139044  0.87979757    -0.28700
N1042       N  0.49385399  0.29802243  0.79537851    -0.45300
C1043       C  0.52651780  0.34947389  0.78339186    -0.04600
C1044       C  0.54677023  0.39852736  0.79828308    -0.22000
H1045       H  0.06166703  0.45137208  0.84327300     0.19800
H1046       H  0.44405807  0.22808838  0.83489251     0.18600
H1047       H  0.92438786  0.23555865  0.88365973     0.15500
H1048       H  0.57639653  0.44497584  0.79439011     0.14800
H1049       H  0.02642780  0.42546550  0.88844008     0.32900
H1050       H  0.47555538  0.25439372  0.78933659     0.35700
C1051       C  0.82829710  0.49283431  0.86445271     0.21300
C1052       C  0.79571832  0.47955400  0.84402012    -0.38600
C1053       C  0.82555569  0.02139516  0.82182281     0.20300
C1054       C  0.88529900  0.05667894  0.82131330     0.22900
C1055       C  0.91844865  0.07767167  0.84164982    -0.39100
C1056       C  0.88704679  0.05994020  0.86249020     0.21700
N1057       N  0.80783232  0.47152483  0.88568203    -0.32400
C1058       C  0.85494996  0.48596235  0.89893994    -0.09900
C1059       C  0.90608267  0.51981378  0.88628330    -0.28700
N1060       N  0.90470623  0.06758488  0.79937024    -0.45300
C1061       C  0.85687209  0.03964073  0.78561861    -0.04600
C1062       C  0.80668810  0.00968155  0.79922089    -0.22000
H1063       H  0.74873207  0.45466814  0.84410187     0.19800
H1064       H  0.96540856  0.10363847  0.84129007     0.18600
H1065       H  0.95124003  0.07988816  0.88989070     0.14900
H1066       H  0.76193694  0.98567830  0.79358118     0.14800
H1067       H  0.76443067  0.44198690  0.88995257     0.32900
H1068       H  0.94774147  0.09574856  0.79429534     0.35700
C1069       C  0.70790789  0.24482354  0.54807322     0.21300
C1070       C  0.68528249  0.25412310  0.56849359    -0.38600
C1071       C  0.69505962  0.23100550  0.58870802     0.20300
C1072       C  0.72489517  0.20082455  0.58863874     0.22900
C1073       C  0.74794952  0.19185417  0.56820609    -0.39100
C1074       C  0.73826047  0.21506967  0.54793842     0.21700
N1075       N  0.70894825  0.26714972  0.52706811    -0.32400
C1076       C  0.74124629  0.25273790  0.51347970    -0.09900
C1077       C  0.75939162  0.21920503  0.52581091    -0.28700
N1078       N  0.72510235  0.18010611  0.60990390    -0.45300
C1079       C  0.69467055  0.19672967  0.62372040    -0.04600
C1080       C  0.67604770  0.22942736  0.61095309    -0.22000
H1081       H  0.66208884  0.27796966  0.56865037     0.19800
H1082       H  0.77203878  0.16894437  0.56812842     0.18600
H1083       H  0.78950488  0.20574236  0.52014252     0.14900
H1084       H  0.64834877  0.24599188  0.61650429     0.14800
H1085       H  0.69361170  0.29555945  0.52291199     0.32900
H1086       H  0.74169940  0.15289605  0.61415774     0.35700
C1087       C  0.87453712  0.00185605  0.54547337     0.21300
C1088       C  0.91071790  0.02754599  0.56480573    -0.38600
C1089       C  0.88231851  0.01880767  0.58612139     0.20300
C1090       C  0.82256132  0.98711217  0.58803166     0.22900
C1091       C  0.80045307  0.51861561  0.56731941    -0.39100
C1092       C  0.83106329  0.53931026  0.54641613     0.21700
N1093       N  0.91028528  0.57688978  0.52392475    -0.32400
C1094       C  0.86259868  0.54163763  0.51091003    -0.09900
C1095       C  0.81221406  0.52003888  0.52420258    -0.28700
N1096       N  0.80623052  0.98730350  0.61001842    -0.45300
C1097       C  0.85596559  0.01994111  0.62236463    -0.04600
C1098       C  0.90438469  0.03968605  0.60789090    -0.22000
H1099       H  0.95757069  0.05170238  0.56340342     0.19800
H1100       H  0.75383343  0.48907345  0.56780649     0.18600
H1101       H  0.76886302  0.48538233  0.51935420     0.14900
H1102       H  0.94964417  0.06905304  0.61217330     0.14800
H1103       H  0.93345974  0.01333690  0.51834552     0.32900
H1104       H  0.76349026  0.96898843  0.61571460     0.35700
C1105       C  0.53301958  0.40999158  0.54981482     0.21300
C1106       C  0.55559091  0.44053909  0.57074368    -0.38600
C1107       C  0.54436962  0.40474700  0.59035669     0.20300
C1108       C  0.51342892  0.34330472  0.58928634     0.22900
C1109       C  0.99110319  0.31262374  0.56831546    -0.39100
C1110       C  0.00213245  0.34842612  0.54863922     0.21700
N1111       N  0.03199423  0.43374146  0.52933924    -0.32400
C1112       C  0.99959269  0.38710441  0.51500262    -0.09900
C1113       C  0.98119989  0.33311671  0.52634269    -0.28700
N1114       N  0.51037479  0.31977833  0.61030177    -0.45300
C1115       C  0.54003633  0.36667215  0.62495474    -0.04600
C1116       C  0.56135423  0.42041572  0.61296012    -0.22000
H1117       H  0.57917399  0.48868070  0.57176192     0.19800
H1118       H  0.96599965  0.26449444  0.56745890     0.18600
H1119       H  0.95092893  0.28880184  0.51999066     0.14900
H1120       H  0.58895946  0.46527768  0.61934599     0.14800
H1121       H  0.54770649  0.47874067  0.52601158     0.32900
H1122       H  0.49185373  0.27454234  0.61394736     0.35700
C1123       C  0.51377599  0.02756928  0.32119752     0.21300
C1124       C  0.99940307  0.04301883  0.34243047    -0.38600
C1125       C  0.00618798  0.01565086  0.36207381     0.20300
C1126       C  0.57030115  0.54307367  0.36773603     0.22900
C1127       C  0.54032226  0.96079372  0.33936435    -0.39100
C1128       C  0.53328720  0.98794532  0.31978917     0.21700
N1129       N  0.51306783  0.04892392  0.30015679    -0.32400
C1130       C  0.53308691  0.02332840  0.28516549    -0.09900
C1131       C  0.54514163  0.98411145  0.29690849    -0.28700
N1132       N  0.06249287  0.52035958  0.38916234    -0.45300
C1133       C  0.03829508  0.54580154  0.40187311    -0.04600
C1134       C  0.03427013  0.58821303  0.38862435    -0.22000
H1135       H  0.98243322  0.07266199  0.34349531     0.19800
H1136       H  0.55431381  0.92868606  0.33811710     0.18600
H1137       H  0.56395029  0.95912531  0.29012634     0.14900
H1138       H  0.00922954  0.60888842  0.39287126     0.14800
H1139       H  0.50372860  0.08232808  0.29667407     0.32900
H1140       H  0.56312335  0.48194441  0.39358432     0.35700
C1141       C  0.71931778  0.42150015  0.36178695     0.21300
C1142       C  0.73673275  0.44906834  0.34011672    -0.38600
C1143       C  0.71689995  0.41111024  0.32092176     0.20300
C1144       C  0.68180637  0.35018458  0.32294381     0.22900
C1145       C  0.66458580  0.32223078  0.34469222    -0.39100
C1146       C  0.68499137  0.36035866  0.36407162     0.21700
N1147       N  0.74139678  0.44709087  0.38230580    -0.32400
C1148       C  0.72362911  0.40221471  0.39782174    -0.09900
C1149       C  0.68621898  0.34748681  0.38721047    -0.28700
N1150       N  0.66648552  0.32463001  0.30186301    -0.45300
C1151       C  0.69158984  0.36987767  0.28624449    -0.04600
C1152       C  0.72449489  0.42440167  0.29775783    -0.22000
H1153       H  0.76559880  0.49654283  0.33833107     0.19800
H1154       H  0.63895439  0.27429743  0.34641289     0.18600
H1155       H  0.67163998  0.30376632  0.39432666     0.14900
H1156       H  0.74696767  0.46878875  0.29053157     0.14800
H1157       H  0.77456061  0.49125155  0.38476634     0.32900
H1158       H  0.63710330  0.27969005  0.29854327     0.35700
C1159       C  0.82477101  0.22476075  0.35617079     0.21300
C1160       C  0.79894101  0.21565223  0.33428904    -0.38600
C1161       C  0.83280645  0.21694609  0.31557421     0.20300
C1162       C  0.88824633  0.22688996  0.31839446     0.22900
C1163       C  0.91415425  0.23599444  0.34031008    -0.39100
C1164       C  0.88011492  0.23431122  0.35910948     0.21700
N1165       N  0.80470931  0.23366999  0.37611393    -0.32400
C1166       C  0.84772002  0.25004355  0.39186777    -0.09900
C1167       C  0.89495217  0.24939810  0.38203189    -0.28700
N1168       N  0.90984098  0.22221360  0.29803070    -0.45300
C1169       C  0.86732781  0.20771683  0.28211702    -0.04600
C1170       C  0.81901736  0.20541397  0.29248603    -0.22000
H1171       H  0.75586768  0.20878930  0.33198806     0.19800
H1172       H  0.95788173  0.24461388  0.34251869     0.18600
H1173       H  0.93765360  0.26699954  0.38954106     0.14900
H1174       H  0.77740692  0.19219768  0.28475199     0.14800
H1175       H  0.76728732  0.23620968  0.37811562     0.32900
H1176       H  0.94896318  0.22323075  0.29564951     0.35700
C1177       C  0.68162510  0.36185559  0.04510963     0.21300
C1178       C  0.69687148  0.40138140  0.06389679    -0.38600
C1179       C  0.68765173  0.37579433  0.08598136     0.20300
C1180       C  0.66455227  0.31546883  0.08913361     0.22900
C1181       C  0.64877376  0.27580949  0.07043596    -0.39100
C1182       C  0.65840287  0.30138563  0.04833431     0.21700
N1183       N  0.69780514  0.37666605  0.02292793    -0.32400
C1184       C  0.68724159  0.32600125  0.01207686    -0.09900
C1185       C  0.66033716  0.27775731  0.02726708    -0.28700
N1186       N  0.65931325  0.30206416  0.11176766    -0.45300
C1187       C  0.67841982  0.35420122  0.12335946    -0.04600
C1188       C  0.69729036  0.40134645  0.10764996    -0.22000
H1189       H  0.71702642  0.44897003  0.06148283     0.19800
H1190       H  0.63288454  0.22889211  0.07291502     0.18600
H1191       H  0.65432352  0.23393344  0.02454382     0.14900
H1192       H  0.71187659  0.44748836  0.11137693     0.14800
H1193       H  0.72425415  0.41998180  0.01674067     0.32900
H1194       H  0.64061877  0.25918243  0.11857890     0.35700
C1195       C  0.88876550  0.18074968  0.08620926     0.21300
C1196       C  0.92012969  0.19648314  0.06533889    -0.38600
C1197       C  0.88663885  0.17951856  0.04497774     0.20300
C1198       C  0.82655990  0.14828604  0.04544912     0.22900
C1199       C  0.79543914  0.13245718  0.06630802    -0.39100
C1200       C  0.82887363  0.15040978  0.08653033     0.21700
N1201       N  0.91007344  0.19227705  0.10791545    -0.32400
C1202       C  0.86319060  0.16894968  0.12224271    -0.09900
C1203       C  0.81183839  0.14302246  0.10927745    -0.28700
N1204       N  0.80509654  0.14821710  0.02446928    -0.45300
C1205       C  0.85134644  0.18183577  0.01061517    -0.04600
C1206       C  0.90298853  0.20012097  0.02266997    -0.22000
H1207       H  0.96706668  0.22294220  0.06498148     0.19800
H1208       H  0.74856099  0.11067347  0.06675131     0.18600
H1209       H  0.76750024  0.11850867  0.11541099     0.14900
H1210       H  0.94614178  0.23405697  0.01727480     0.14800
H1211       H  0.95378461  0.21235941  0.11248833     0.32900
H1212       H  0.76211373  0.13593027  0.02102948     0.35700
C1213       C  0.54446908  0.06852320  0.08701227     0.21300
C1214       C  0.53583216  0.09319246  0.06691717    -0.38600
C1215       C  0.04394612  0.07162635  0.04580503     0.20300
C1216       C  0.53373076  0.49630573  0.04660852     0.22900
C1217       C  0.55241181  0.48198462  0.06697303    -0.39100
C1218       C  0.56073314  0.02626285  0.08611250     0.21700
N1219       N  0.53863644  0.08103862  0.10906557    -0.32400
C1220       C  0.55205535  0.04716661  0.12255306    -0.09900
C1221       C  0.56556972  0.01187280  0.10867704    -0.28700
N1222       N  0.02645196  0.47027845  0.02583745    -0.45300
C1223       C  0.99590185  0.48786272  0.01281848    -0.04600
C1224       C  0.98562840  0.52746871  0.02522261    -0.22000
H1225       H  0.52071597  0.12444695  0.06767386     0.19800
H1226       H  0.56935644  0.45224700  0.06696973     0.18600
H1227       H  0.57979739  0.98185736  0.11419057     0.14900
H1228       H  0.00165571  0.09717455  0.01954571     0.14800
H1229       H  0.52960463  0.11363775  0.11444455     0.32900
H1230       H  0.03356244  0.43541749  0.02201399     0.35700
C1231       C  0.55716376  0.55137594  0.14771771     0.04100
C1232       C  0.59644599  0.53909389  0.15919561    -0.12100
C1233       C  0.63097075  0.57671253  0.17726689     0.01600
C1234       C  0.62922132  0.62871798  0.18034969    -0.10600
C1235       C  0.57646075  0.62616314  0.17699307     0.04100
C1236       C  0.54139839  0.58904663  0.15899351    -0.10000
H1237       H  0.60161169  0.50255430  0.15365518     0.09700
H1238       H  0.66684263  0.66905476  0.18616590     0.07200
H1239       H  0.50382435  0.59083540  0.15342588     0.07000
C1240       C  0.69626757  0.52905996  0.22713373     0.46400
H1241       H  0.69635244  0.52853548  0.24633566    -0.02600
C1242       C  0.69654082  0.52944213  0.18213074     0.46500
H1243       H  0.69715242  0.52994311  0.16289328    -0.02600
C1244       C  0.75759688  0.55980229  0.21677063    -0.16300
C1245       C  0.66702372  0.96643212  0.21850872    -0.16100
C1246       C  0.66628270  0.56071883  0.21688031    -0.16400
C1247       C  0.75772781  0.56030755  0.19269085    -0.16400
C1248       C  0.66691592  0.96637957  0.19436291    -0.16000
C1249       C  0.66630347  0.56076099  0.19262960    -0.16300
C1250       C  0.52655050  0.69031100  0.18170300     0.46400
H1251       H  0.52614717  0.68989414  0.16246145    -0.02600
C1252       C  0.52722638  0.69101841  0.22669906     0.46500
H1253       H  0.52815601  0.69192311  0.24588967    -0.02600
C1254       C  0.55802046  0.75345850  0.19197028    -0.16300
C1255       C  0.96522662  0.65912423  0.19233779    -0.16100
C1256       C  0.55728018  0.65953983  0.19220007    -0.16400
C1257       C  0.55832240  0.75364550  0.21611157    -0.16400
C1258       C  0.96562185  0.65902104  0.21654370    -0.16000
C1259       C  0.55759556  0.66002166  0.21637963    -0.16300
C1260       C  0.86466019  0.67682612  0.15079589     0.04100
C1261       C  0.81166544  0.63689740  0.16173533    -0.12100
C1262       C  0.80998579  0.59596016  0.17778545     0.01600
C1263       C  0.86023564  0.59276755  0.17993094    -0.10600
C1264       C  0.91388002  0.64517998  0.17742483     0.04100
C1265       C  0.91646018  0.68620548  0.16105685    -0.10000
H1266       H  0.77193436  0.63558649  0.15718231     0.09700
H1267       H  0.85778220  0.55205819  0.18509452     0.07200
H1268       H  0.95793915  0.72374793  0.15593136     0.07000
C1269       C  0.66828765  0.86241921  0.14826206     0.04100
C1270       C  0.68480057  0.91469333  0.16113647    -0.12100
C1271       C  0.64885946  0.91343013  0.17907148     0.01600
C1272       C  0.59575284  0.86072114  0.18173053    -0.10600
C1273       C  0.59280643  0.80700641  0.17689363     0.04100
C1274       C  0.62702353  0.80735280  0.15827875    -0.10000
H1275       H  0.72320793  0.95630400  0.15658266     0.09700
H1276       H  0.55872702  0.86102230  0.18864861     0.07200
H1277       H  0.62090638  0.76595271  0.15146142     0.07000
C1278       C  0.86412260  0.65474925  0.26436408     0.04100
C1279       C  0.91625689  0.67097569  0.25246097    -0.12100
C1280       C  0.91398385  0.63985866  0.23213446     0.01600
C1281       C  0.86042713  0.58961926  0.22719293    -0.10600
C1282       C  0.81011110  0.59079132  0.23202186     0.04100
C1283       C  0.81150540  0.62213609  0.25200444    -0.10000
H1284       H  0.95739083  0.70507400  0.25939649     0.09700
H1285       H  0.85801737  0.55102253  0.21953888     0.07200
H1286       H  0.77206205  0.61865193  0.25852160     0.07000
C1287       C  0.67049597  0.85550260  0.26043339     0.04100
C1288       C  0.63200459  0.80365917  0.24796473    -0.12100
C1289       C  0.59557536  0.80620059  0.23119510     0.01600
C1290       C  0.59644376  0.85982933  0.22928900    -0.10600
C1291       C  0.64859570  0.91268369  0.23339853     0.04100
C1292       C  0.68435406  0.91108668  0.25086467    -0.10000
H1293       H  0.62792627  0.76136945  0.25200124     0.09700
H1294       H  0.55914130  0.86086553  0.22319802     0.07200
H1295       H  0.72093871  0.95202150  0.25732099     0.07000
C1296       C  0.56860277  0.56568695  0.26462999     0.04100
C1297       C  0.54927873  0.59896678  0.25227982    -0.12100
C1298       C  0.57869492  0.62899891  0.23196395     0.01600
C1299       C  0.63005034  0.62984498  0.22743015    -0.10600
C1300       C  0.63319389  0.57956772  0.23237887     0.04100
C1301       C  0.60417308  0.54873583  0.25270464    -0.10000
H1302       H  0.51389433  0.60328680  0.25895288     0.09700
H1303       H  0.66692224  0.66889093  0.22047448     0.07200
H1304       H  0.61138656  0.51481596  0.25974227     0.07000
Zn1305     Zn  0.84694340  0.75134418  0.46457440     1.49700
Zn1306     Zn  0.84231536  0.81446955  0.41963198     1.49400
Zn1307     Zn  0.77214145  0.81811125  0.46201176     1.49100
Zn1308     Zn  0.91244435  0.89473628  0.46200426     1.49500
O1309       O  0.84335497  0.81972878  0.45249359    -1.83200
O1310       O  0.85628070  0.70140812  0.43955686    -0.73800
O1311       O  0.77265860  0.80846833  0.40594743    -0.73600
O1312       O  0.72627539  0.74753927  0.48271201    -0.73100
O1313       O  0.84646481  0.74609226  0.40871905    -0.73800
O1314       O  0.77667553  0.70125001  0.48426971    -0.73400
O1315       O  0.72228561  0.81722345  0.43467650    -0.74000
O1316       O  0.88913338  0.94146477  0.48230188    -0.73400
O1317       O  0.90985278  0.88377285  0.40588918    -0.74100
O1318       O  0.79271322  0.88621358  0.48392390    -0.73500
O1319       O  0.96243583  0.94397047  0.43465108    -0.74000
O1320       O  0.95926043  0.87821798  0.48468328    -0.73900
O1321       O  0.91168979  0.77948026  0.48751653    -0.73700
C1322       C  0.85366636  0.70625909  0.41771687     0.78100
C1323       C  0.72955399  0.81131927  0.41319415     0.78600
C1324       C  0.73475867  0.70746159  0.49094945     0.77500
C1325       C  0.84077242  0.92979622  0.49098575     0.77900
C1326       C  0.95381149  0.93108191  0.41315869     0.79100
C1327       C  0.95115316  0.83076577  0.49426727     0.78100
Zn1328     Zn  0.79104589  0.87930860  0.94649783     1.49700
Zn1329     Zn  0.93247887  0.95853741  0.94571699     1.49400
Zn1330     Zn  0.86481051  0.89062966  0.98952310     1.49100
Zn1331     Zn  0.86626698  0.81401505  0.94832938     1.49500
O1332       O  0.86361127  0.88550895  0.95684856    -1.83200
O1333       O  0.81122902  0.94757500  0.92494813    -0.73800
O1334       O  0.99082279  0.00783748  0.97175008    -0.73600
O1335       O  0.80318987  0.90134966  0.00178721    -0.73100
O1336       O  0.90746005  0.00666215  0.92694879    -0.73800
O1337       O  0.73959044  0.87761961  0.97321294    -0.73400
O1338       O  0.93832587  0.95444140  0.00175183    -0.74000
O1339       O  0.86830892  0.76691657  0.97661809    -0.73400
O1340       O  0.97098270  0.93461268  0.92153588    -0.74100
O1341       O  0.85417698  0.81834389  0.00387027    -0.73500
O1342       O  0.93226948  0.83679282  0.92599510    -0.74000
O1343       O  0.79787602  0.76150162  0.92778433    -0.73900
O1344       O  0.74772033  0.80787656  0.92580262    -0.73700
C1345       C  0.85838590  0.99324842  0.91838815     0.78100
C1346       C  0.98441240  0.99743021  0.99348997     0.78600
C1347       C  0.75449924  0.89084902  0.99434735     0.77500
C1348       C  0.85925406  0.77479696  0.99769376     0.77900
C1349       C  0.96574709  0.88527461  0.91537434     0.79100
C1350       C  0.75727604  0.76719026  0.91915363     0.78100
C1351       C  0.86308435  0.55298902  0.64831773     0.04100
C1352       C  0.91561385  0.58659313  0.66064992    -0.12100
C1353       C  0.91689804  0.61996114  0.67998234     0.01600
C1354       C  0.86696145  0.62239221  0.68396679    -0.10600
C1355       C  0.81335293  0.57193834  0.67946729     0.04100
C1356       C  0.81091214  0.53837261  0.65991372    -0.10000
H1357       H  0.95513733  0.58958476  0.65448357     0.09700
H1358       H  0.86965264  0.66186918  0.69085592     0.07200
H1359       H  0.76952347  0.50392657  0.65327455     0.07000
C1360       C  0.86233887  0.54332406  0.76330936     0.04100
C1361       C  0.91592644  0.58244168  0.75241627    -0.12100
C1362       C  0.91760396  0.61977765  0.73458376     0.01600
C1363       C  0.86694428  0.62159341  0.73119709    -0.10600
C1364       C  0.81341884  0.56930026  0.73415755     0.04100
C1365       C  0.81081719  0.53088791  0.75171370    -0.10000
H1366       H  0.95564216  0.58511066  0.75804264     0.09700
H1367       H  0.86915623  0.66160136  0.72525450     0.07200
H1368       H  0.76927472  0.49355825  0.75682801     0.07000
C1369       C  0.70066385  0.52485019  0.68442838     0.46400
H1370       H  0.70055426  0.52532816  0.66520948    -0.02600
C1371       C  0.70018423  0.52332249  0.72945575     0.46500
H1372       H  0.69978705  0.52258652  0.74869958    -0.02600
C1373       C  0.66296718  0.96095220  0.69079760    -0.16300
C1374       C  0.76188159  0.55471124  0.69484441    -0.16100
C1375       C  0.67119149  0.55646831  0.69515095    -0.16400
C1376       C  0.66339687  0.96243926  0.71489380    -0.16400
C1377       C  0.76185024  0.55395784  0.71904281    -0.16000
C1378       C  0.67113268  0.55610240  0.71929967    -0.16300
C1379       C  0.53167656  0.68686690  0.72936967     0.46400
H1380       H  0.53219698  0.68780478  0.74861397    -0.02600
C1381       C  0.53022303  0.68486320  0.68431183     0.46500
H1382       H  0.52945239  0.68436363  0.66508628    -0.02600
C1383       C  0.96986732  0.65358593  0.71923465    -0.16300
C1384       C  0.56090609  0.74940432  0.71847719    -0.16100
C1385       C  0.56312640  0.65652554  0.71889088    -0.16400
C1386       C  0.96936137  0.65279481  0.69508561    -0.16400
C1387       C  0.56010036  0.74806852  0.69433349    -0.16000
C1388       C  0.56212179  0.65540732  0.69468212    -0.16300
C1389       C  0.54543758  0.84857559  0.65054321     0.04100
C1390       C  0.58720429  0.90412170  0.66004529    -0.12100
C1391       C  0.62652428  0.90632918  0.67658694     0.01600
C1392       C  0.62653493  0.85373468  0.68066392    -0.10600
C1393       C  0.57420060  0.79968013  0.67884779     0.04100
C1394       C  0.53435615  0.79648713  0.66229175    -0.10000
H1395       H  0.59056193  0.94506306  0.65424373     0.09700
H1396       H  0.66493074  0.85523419  0.68699277     0.07200
H1397       H  0.49632713  0.75400113  0.65815391     0.07000
C1398       C  0.66474953  0.65576353  0.64822460     0.04100
C1399       C  0.62665621  0.67018914  0.65959430    -0.12100
C1400       C  0.59577091  0.63726177  0.67925086     0.01600
C1401       C  0.59897905  0.58682454  0.68392520    -0.10600
C1402       C  0.65122878  0.58892300  0.67996067     0.04100
C1403       C  0.68337254  0.62207102  0.66066701    -0.10000
H1404       H  0.61974820  0.70458674  0.65282391     0.09700
H1405       H  0.56234209  0.54767319  0.69097568     0.07200
H1406       H  0.72040166  0.61952745  0.65489782     0.07000
C1407       C  0.67515013  0.66829560  0.76299146     0.04100
C1408       C  0.68906374  0.62836502  0.75230693    -0.12100
C1409       C  0.65302993  0.59047316  0.73460913     0.01600
C1410       C  0.60067448  0.58889905  0.73120229    -0.10600
C1411       C  0.59961871  0.64143648  0.73398788     0.04100
C1412       C  0.63585469  0.68041827  0.75135602    -0.10000
H1413       H  0.72611528  0.62570032  0.75794131     0.09700
H1414       H  0.56280281  0.54880659  0.72537708     0.07200
H1415       H  0.63186777  0.71809939  0.75625858     0.07000
C1416       C  0.55279786  0.85950073  0.75978727     0.04100
C1417       C  0.54091350  0.80436971  0.75028631    -0.12100
C1418       C  0.57751592  0.80365480  0.73293175     0.01600
C1419       C  0.62846412  0.85741506  0.72841421    -0.10600
C1420       C  0.62789660  0.91029949  0.73049349     0.04100
C1421       C  0.59131828  0.91194494  0.74752951    -0.10000
H1422       H  0.50453303  0.76291937  0.75641133     0.09700
H1423       H  0.66594345  0.85760972  0.72170388     0.07200
H1424       H  0.59433435  0.95381899  0.75158740     0.07000
C1425       C  0.71742776  0.68703283  0.82269412     0.21300
C1426       C  0.73664294  0.67430566  0.84333864    -0.38600
C1427       C  0.72422429  0.69490438  0.86380439     0.20300
C1428       C  0.69465707  0.72546783  0.86365928     0.22900
C1429       C  0.67562114  0.73819567  0.84303618    -0.39100
C1430       C  0.68835713  0.71796632  0.82264633     0.21700
N1431       N  0.72149794  0.67022705  0.80106907    -0.32400
C1432       C  0.69422243  0.69010834  0.78704929    -0.09900
C1433       C  0.67385745  0.72096609  0.80008272    -0.28700
N1434       N  0.69494035  0.74710143  0.88480227    -0.45300
C1435       C  0.72662166  0.73215104  0.89846876    -0.04600
C1436       C  0.74398994  0.69781378  0.88609330    -0.22000
H1437       H  0.76068660  0.65134650  0.84341557     0.19800
H1438       H  0.65359763  0.76321681  0.84283987     0.18600
H1439       H  0.64777230  0.73921413  0.79434733     0.14900
H1440       H  0.77415399  0.68442816  0.89169406     0.14800
H1441       H  0.73840961  0.64337584  0.79658716     0.32900
H1442       H  0.68103469  0.77681975  0.88883584     0.35700
C1443       C  0.02186193  0.90672776  0.85825738     0.21300
C1444       C  0.53936448  0.93669741  0.83696607    -0.38600
C1445       C  0.53076589  0.90085460  0.81749375     0.20300
C1446       C  0.50684066  0.83997793  0.81906788     0.22900
C1447       C  0.48930763  0.80995649  0.84035633    -0.39100
C1448       C  0.49774778  0.84572663  0.85984843     0.21700
N1449       N  0.01992147  0.92972669  0.87885692    -0.32400
C1450       C  0.99333652  0.88293215  0.89362892    -0.09900
C1451       C  0.97999489  0.82995513  0.88245252    -0.28700
N1452       N  0.50650874  0.81664329  0.79824843    -0.45300
C1453       C  0.53115077  0.86307359  0.78316984    -0.04600
C1454       C  0.54589272  0.91627050  0.79469132    -0.22000
H1455       H  0.05783286  0.98435455  0.83562851     0.19800
H1456       H  0.46990058  0.76217023  0.84161628     0.18600
H1457       H  0.95474319  0.78518011  0.88923137     0.15500
H1458       H  0.56877421  0.96113539  0.78793254     0.14800
H1459       H  0.03076763  0.97360067  0.88204521     0.32900
H1460       H  0.49409775  0.77235552  0.79506898     0.35700
C1461       C  0.82714331  0.02444559  0.86297974     0.21300
C1462       C  0.79407530  0.00415029  0.84260062    -0.38600
C1463       C  0.82780414  0.49852530  0.82342876     0.20300
C1464       C  0.88772134  0.52897935  0.82314259     0.22900
C1465       C  0.92046289  0.54233167  0.84356938    -0.39100
C1466       C  0.88835168  0.52281437  0.86420906     0.21700
N1467       N  0.80854989  0.00466109  0.88454835    -0.32400
C1468       C  0.85693416  0.02559849  0.89779557    -0.09900
C1469       C  0.90656299  0.06247236  0.88476580    -0.28700
N1470       N  0.90776958  0.54405094  0.80138389    -0.45300
C1471       C  0.86019174  0.52340883  0.78757796    -0.04600
C1472       C  0.80948377  0.49396629  0.80090320    -0.22000
H1473       H  0.74740538  0.97490422  0.84292019     0.19800
H1474       H  0.96737037  0.56457402  0.84334967     0.18600
H1475       H  0.94968756  0.53239766  0.89148086     0.14900
H1476       H  0.76502545  0.47545217  0.79531781     0.14800
H1477       H  0.76643171  0.97166532  0.88910357     0.32900
H1478       H  0.95134444  0.57011733  0.79664717     0.35700
C1479       C  0.66533642  0.67186829  0.54505951     0.21300
C1480       C  0.64680096  0.68989221  0.56456808    -0.38600
C1481       C  0.66193277  0.67706115  0.58609755     0.20300
C1482       C  0.69240585  0.64779641  0.58805050     0.22900
C1483       C  0.71001607  0.62870855  0.56861639    -0.39100
C1484       C  0.69564940  0.64224779  0.54705481     0.21700
N1485       N  0.66717602  0.68990500  0.52315746    -0.32400
C1486       C  0.70072907  0.67382126  0.51126395    -0.09900
C1487       C  0.71716342  0.64170758  0.52544018    -0.28700
N1488       N  0.70183336  0.64134883  0.61037729    -0.45300
C1489       C  0.67661737  0.66612803  0.62298302    -0.04600
C1490       C  0.65164620  0.68933227  0.60822655    -0.22000
H1491       H  0.62495138  0.71493318  0.56307598     0.19800
H1492       H  0.73584565  0.60783312  0.57016583     0.18600
H1493       H  0.74903609  0.62918651  0.52156223     0.14900
H1494       H  0.62638797  0.70944020  0.61287737     0.14800
H1495       H  0.65410852  0.71928898  0.51761625     0.32900
H1496       H  0.72166295  0.61844418  0.61639356     0.35700
C1497       C  0.89103451  0.57406028  0.54564872     0.21300
C1498       C  0.92487676  0.59120518  0.56586437    -0.38600
C1499       C  0.89420315  0.56976649  0.58669349     0.20300
C1500       C  0.83443885  0.53482633  0.58743804     0.22900
C1501       C  0.78631003  0.96133803  0.56871746    -0.39100
C1502       C  0.81467145  0.96990379  0.54738131     0.21700
N1503       N  0.89098732  0.99802867  0.52386732    -0.32400
C1504       C  0.84141107  0.96220887  0.51197490    -0.09900
C1505       C  0.79280345  0.94490880  0.52599544    -0.28700
N1506       N  0.81578388  0.51959568  0.60934381    -0.45300
C1507       C  0.86407589  0.54542228  0.62285141    -0.04600
C1508       C  0.91388587  0.57677108  0.60911661    -0.22000
H1509       H  0.97185020  0.61638905  0.56532088     0.19800
H1510       H  0.73950173  0.93557221  0.57026022     0.18600
H1511       H  0.74804828  0.91246231  0.52196886     0.14900
H1512       H  0.95844274  0.60434484  0.61472563     0.14800
H1513       H  0.95349516  0.59334472  0.51917537     0.32900
H1514       H  0.77248744  0.49525073  0.61461698     0.35700
C1515       C  0.51052937  0.86861419  0.55039506     0.21300
C1516       C  0.52464599  0.90307700  0.57062641    -0.38600
C1517       C  0.51768131  0.87254177  0.59139936     0.20300
C1518       C  0.49842088  0.81240993  0.59199180     0.22900
C1519       C  0.98406893  0.77777293  0.57177317    -0.39100
C1520       C  0.99065507  0.80823411  0.55097103     0.21700
N1521       N  0.00679417  0.88571591  0.52889326    -0.32400
C1522       C  0.98249640  0.83560846  0.51576208    -0.09900
C1523       C  0.97326590  0.78659616  0.52884538    -0.28700
N1524       N  0.49960999  0.79496342  0.61371956    -0.45300
C1525       C  0.52087398  0.84459770  0.62715402    -0.04600
C1526       C  0.53131120  0.89362831  0.61372827    -0.22000
H1527       H  0.53933590  0.95010924  0.57023380     0.19800
H1528       H  0.96807751  0.73044968  0.57224067     0.18600
H1529       H  0.95001558  0.74025906  0.52363502     0.14900
H1530       H  0.55110695  0.93969401  0.61900530     0.14800
H1531       H  0.51354159  0.92735879  0.52416400     0.32900
H1532       H  0.49143684  0.75287071  0.61853350     0.35700
C1533       C  0.55474755  0.58199977  0.32559233     0.21300
C1534       C  0.04517879  0.60622458  0.34567427    -0.38600
C1535       C  0.05337350  0.58493697  0.36678308     0.20300
C1536       C  0.52598499  0.97616013  0.36059561     0.22900
C1537       C  0.58042145  0.51940948  0.34760710    -0.39100
C1538       C  0.57169391  0.54028088  0.32655533     0.21700
N1539       N  0.54765237  0.59309838  0.30351250    -0.32400
C1540       C  0.56031699  0.55829948  0.29013521    -0.09900
C1541       C  0.57545845  0.52460444  0.30407472    -0.28700
N1542       N  0.01959158  0.94893088  0.38095429    -0.45300
C1543       C  0.99422127  0.96982266  0.39544960    -0.04600
C1544       C  0.98658956  0.01273176  0.38439752    -0.22000
H1545       H  0.02904242  0.63662129  0.34490748     0.19800
H1546       H  0.59082702  0.48451584  0.34829363     0.18600
H1547       H  0.58904367  0.49395297  0.29864348     0.14900
H1548       H  0.96089856  0.03122268  0.39052143     0.14800
H1549       H  0.53724892  0.62454730  0.29800948     0.32900
H1550       H  0.52384029  0.91184762  0.38374246     0.35700
C1551       C  0.68575674  0.84840456  0.36292405     0.21300
C1552       C  0.70019321  0.88995066  0.34499654    -0.38600
C1553       C  0.69377710  0.86754012  0.32240556     0.20300
C1554       C  0.67429611  0.80832745  0.31798538     0.22900
C1555       C  0.65950564  0.76667014  0.33581915    -0.39100
C1556       C  0.66594269  0.78901702  0.35842563     0.21700
N1557       N  0.69919571  0.86071693  0.38546942    -0.32400
C1558       C  0.69004985  0.80955552  0.39532396    -0.09900
C1559       C  0.66695055  0.76338234  0.37905601    -0.28700
N1560       N  0.67017632  0.79778229  0.29510677    -0.45300
C1561       C  0.68602669  0.85057200  0.28466582    -0.04600
C1562       C  0.70217723  0.89535062  0.30132032    -0.22000
H1563       H  0.71728168  0.93676313  0.34840482     0.19800
H1564       H  0.64631777  0.72075014  0.33234334     0.18600
H1565       H  0.66277189  0.72014608  0.38097983     0.14900
H1566       H  0.71323563  0.94091268  0.29858337     0.14800
H1567       H  0.72294136  0.90333977  0.39266219     0.32900
H1568       H  0.65386114  0.75601252  0.28744030     0.35700
C1569       C  0.83313196  0.63149263  0.36682809     0.21300
C1570       C  0.80043166  0.61484782  0.34638701    -0.38600
C1571       C  0.83207255  0.63565738  0.32582073     0.20300
C1572       C  0.89188826  0.66975367  0.32542451     0.22900
C1573       C  0.92491426  0.68626505  0.34585027    -0.39100
C1574       C  0.89312342  0.66624997  0.36658565     0.21700
N1575       N  0.81247319  0.62997959  0.38813351    -0.32400
C1576       C  0.85884578  0.66651663  0.40144927    -0.09900
C1577       C  0.91015230  0.68753972  0.38878274    -0.28700
N1578       N  0.91126747  0.68513785  0.30358146    -0.45300
C1579       C  0.86319710  0.66056591  0.28991078    -0.04600
C1580       C  0.81302911  0.62953658  0.30339891    -0.22000
H1581       H  0.75343573  0.59072649  0.34657293     0.19800
H1582       H  0.97152794  0.71597508  0.34568970     0.18600
H1583       H  0.95255942  0.72414376  0.39362240     0.14900
H1584       H  0.76844496  0.60319876  0.29767367     0.14800
H1585       H  0.76913599  0.61535596  0.39205858     0.32900
H1586       H  0.95469778  0.70924980  0.29846149     0.35700
C1587       C  0.71343101  0.91411230  0.04773017     0.21300
C1588       C  0.73241139  0.94294195  0.06918260    -0.38600
C1589       C  0.71162703  0.90615533  0.08869543     0.20300
C1590       C  0.67444715  0.84538401  0.08708675     0.22900
C1591       C  0.65547436  0.81639039  0.06561826    -0.39100
C1592       C  0.67654576  0.85316740  0.04599627     0.21700
N1593       N  0.73588845  0.93744904  0.02697028    -0.32400
C1594       C  0.71552500  0.89113929  0.01191758    -0.09900
C1595       C  0.67626258  0.83811641  0.02306228    -0.28700
N1596       N  0.65908152  0.82093971  0.10827495    -0.45300
C1597       C  0.68613442  0.86666218  0.12362246    -0.04600
C1598       C  0.72025283  0.92043520  0.11181517    -0.22000
H1599       H  0.76281160  0.99035339  0.07054624     0.19800
H1600       H  0.62807978  0.76849791  0.06427162     0.18600
H1601       H  0.65972565  0.79344971  0.01648554     0.14900
H1602       H  0.74453877  0.96501306  0.11885884     0.14800
H1603       H  0.77109929  0.98035514  0.02414936     0.32900
H1604       H  0.62855203  0.77648170  0.11182609     0.35700
C1605       C  0.88939573  0.71729047  0.09121286     0.21300
C1606       C  0.91859305  0.72856208  0.06991213    -0.38600
C1607       C  0.88561688  0.72318930  0.05019564     0.20300
C1608       C  0.82801947  0.70750582  0.05173440     0.22900
C1609       C  0.79904350  0.69657831  0.07301796    -0.39100
C1610       C  0.83201013  0.70212668  0.09264071     0.21700
N1611       N  0.91007207  0.71649033  0.11228126    -0.32400
C1612       C  0.86526069  0.69977714  0.12730634    -0.09900
C1613       C  0.81605262  0.69154049  0.11556328    -0.28700
N1614       N  0.80860996  0.71347520  0.03114914    -0.45300
C1615       C  0.85417136  0.73466422  0.01632753    -0.04600
C1616       C  0.90278328  0.73997718  0.02753039    -0.22000
H1617       H  0.96396349  0.74186299  0.06882963     0.19800
H1618       H  0.75436370  0.68569277  0.07422814     0.18600
H1619       H  0.77292020  0.67539997  0.12236649     0.14900
H1620       H  0.94693059  0.76248209  0.02110109     0.14800
H1621       H  0.95079541  0.72210569  0.11575451     0.32900
H1622       H  0.76933716  0.71178375  0.02821682     0.35700
C1623       C  0.52050174  0.54151499  0.08769451     0.21300
C1624       C  0.50212692  0.55623994  0.06734783    -0.38600
C1625       C  0.00935503  0.53190946  0.04681747     0.20300
C1626       C  0.56005317  0.02914493  0.04486387     0.22900
C1627       C  0.56938506  0.00506227  0.06503404    -0.39100
C1628       C  0.54454491  0.50574528  0.08747709     0.21700
N1629       N  0.51759930  0.55827788  0.10940294    -0.32400
C1630       C  0.54031458  0.53329495  0.12326531    -0.09900
C1631       C  0.55722916  0.49977474  0.11003618    -0.28700
N1632       N  0.05274787  0.00683194  0.02332879    -0.45300
C1633       C  0.02964720  0.03314017  0.01049997    -0.04600
C1634       C  0.02583082  0.07566540  0.02386586    -0.22000
H1635       H  0.48113485  0.58227159  0.06762725     0.19800
H1636       H  0.57964508  0.97005592  0.06434993     0.18600
H1637       H  0.57857639  0.47642281  0.11579192     0.14900
H1638       H  0.95618050  0.54254660  0.02051286     0.14800
H1639       H  0.50373020  0.58759183  0.11412374     0.32900
H1640       H  0.05309680  0.96827036  0.01881835     0.35700
loop_ 
_geom_bond_atom_site_label_1 
_geom_bond_atom_site_label_2 
_geom_bond_distance 
_geom_bond_site_symmetry_2 
_ccdc_geom_bond_type 
C1            C2   1.417       .  A
C1            C6   1.413       .  A
C1          C400   1.486       .  S
C2            C3   1.411       .  A
C2            H7   1.080       .  S
C3            C4   1.392       .  A
C3           C19   1.507       .  S
C4            C5   1.393       .  A
C4            H8   1.072       .  S
C5            C6   1.405       .  A
C5           C26   1.501       .  S
C6            H9   1.082       .  S
C10          H11   1.111       .  S
C10          C16   1.543       .  S
C10          C14   1.537       .  S
C10         C425   1.539   1_545  S
C12          H13   1.109       .  S
C12          C17   1.536       .  S
C12          C19   1.536       .  S
C12         C428   1.533   1_545  S
C14          C52   1.498       .  S
C14          C17   1.389       .  D
C15          C61   1.495       .  S
C15         C420   1.533       .  S
C15          C18   1.394       .  D
C16          C70   1.502       .  S
C16          C19   1.397       .  D
C17          C32   1.496       .  S
C18          C41   1.499       .  S
C18         C422   1.536       .  S
C20          H21   1.109       .  S
C20          C26   1.533       .  S
C20          C24   1.535       .  S
C20         C845   1.535   1_455  S
C22          H23   1.111       .  S
C22          C27   1.535       .  S
C22          C29   1.540       .  S
C22         C848   1.541   1_455  S
C24          C43   1.498       .  S
C24          C27   1.396       .  D
C25          C34   1.507       .  S
C25         C840   1.535       .  S
C25          C28   1.398       .  D
C26          C29   1.393       .  D
C27          C59   1.500       .  S
C28          C50   1.504       .  S
C28         C842   1.541       .  S
C29          C68   1.500       .  S
C30          C31   1.412       .  A
C30          C35   1.416       .  A
C30         C382   1.486       .  S
C31          C32   1.400       .  A
C31          H36   1.081       .  S
C32          C33   1.393       .  A
C33          C34   1.392       .  A
C33          H37   1.072       .  S
C34          C35   1.412       .  A
C35          H38   1.080       .  S
C39          C40   1.415       .  A
C39          C44   1.413       .  A
C39         C367   1.486       .  S
C40          C41   1.407       .  A
C40          H45   1.082       .  S
C41          C42   1.392       .  A
C42          C43   1.392       .  A
C42          H46   1.073       .  S
C43          C44   1.405       .  A
C44          H47   1.080       .  S
C48          C49   1.413       .  A
C48          C53   1.412       .  A
C48         C349   1.480       .  S
C49          C50   1.407       .  A
C49          H54   1.083       .  S
C50          C51   1.397       .  A
C51          C52   1.398       .  A
C51          H55   1.075       .  S
C52          C53   1.400       .  A
C53          H56   1.081       .  S
C57          C58   1.416       .  A
C57          C62   1.412       .  A
C57         C331   1.487       .  S
C58          C59   1.410       .  A
C58          H63   1.082       .  S
C59          C60   1.392       .  A
C60          C61   1.392       .  A
C60          H64   1.074       .  S
C61          C62   1.402       .  A
C62          H65   1.080       .  S
C66          C67   1.412       .  A
C66          C71   1.412       .  A
C66         C310   1.481       .  S
C67          C68   1.404       .  A
C67          H72   1.082       .  S
C68          C69   1.397       .  A
C69          C70   1.397       .  A
C69          H73   1.074       .  S
C70          C71   1.402       .  A
C71          H74   1.080   1_545  S
Zn75         O79   1.952       .  S
Zn75         O80   2.047       .  S
Zn75         O84   2.009       .  S
Zn75         O91   2.018       .  S
Zn76         O79   1.873       .  S
Zn76         O81   1.966       .  S
Zn76         O83   1.966       .  S
Zn76         O87   1.950       .  S
Zn77         O79   1.939       .  S
Zn77         O82   1.993       .  S
Zn77         O85   2.061       .  S
Zn77         O88   2.015       .  S
Zn78         O79   1.942       .  S
Zn78         O86   2.007       .  S
Zn78         O89   2.056       .  S
Zn78         O90   2.016       .  S
O80          C92   1.277       .  A
O81          C93   1.265       .  A
O82          C94   1.272       .  A
O83          C92   1.268       .  A
O84          C94   1.273       .  A
O85          C93   1.274       .  A
O86          C95   1.275       .  A
O87          C96   1.265       .  A
O88          C95   1.277       .  A
O89          C96   1.276       .  A
O90          C97   1.274       .  A
O91          C97   1.275       .  A
C92         C346   1.458       .  S
C93         C328   1.464       .  S
C94         C256   1.467       .  S
C95         C274   1.470       .  S
C96         C313   1.460       .  S
C97         C292   1.473       .  S
Zn98        O102   1.965       .  S
Zn98        O103   2.014       .  S
Zn98        O107   2.054       .  S
Zn98        O114   2.006       .  S
Zn99        O102   1.961       .  S
Zn99        O104   2.043       .  S
Zn99        O106   2.001       .  S
Zn99        O110   2.010       .  S
Zn100       O102   1.900       .  S
Zn100       O105   1.961   1_556  S
Zn100       O108   1.966   1_556  S
Zn100       O111   1.960   1_556  S
Zn101       O102   1.971       .  S
Zn101       O109   2.048       .  S
Zn101       O112   2.012       .  S
Zn101       O113   2.012       .  S
O103        C115   1.274       .  A
O104        C116   1.274       .  A
O105        C117   1.266   1_554  A
O106        C115   1.272       .  A
O107        C117   1.275       .  A
O108        C116   1.266   1_554  A
O109        C118   1.274       .  A
O110        C119   1.273       .  A
O111        C118   1.266   1_554  A
O112        C119   1.273       .  A
O113        C120   1.274       .  A
O114        C120   1.273       .  A
C115        C238   1.469       .  S
C116        C403   1.458   1_556  S
C117        C364   1.462   1_556  S
C118        C385   1.459   1_556  S
C119        C220   1.471       .  S
C120        C205   1.470       .  S
C121        C122   1.416       .  A
C121        C126   1.415       .  A
C121        C277   1.488       .  S
C122        C123   1.405       .  A
C122        H127   1.082       .  S
C123        C124   1.397       .  A
C123        C156   1.504       .  S
C124        C125   1.396       .  A
C124        H128   1.074       .  S
C125        C126   1.405       .  A
C125        C144   1.505       .  S
C126        H129   1.080   1_545  S
C130        C131   1.413       .  A
C130        C135   1.415       .  A
C130        C241   1.486       .  S
C131        C132   1.407       .  A
C131        H136   1.081       .  S
C132        C133   1.391       .  A
C132        C153   1.499       .  S
C133        C134   1.391       .  A
C133        H137   1.072       .  S
C134        C135   1.407       .  A
C134        C147   1.501       .  S
C135        H138   1.080       .  S
C139        H140   1.111       .  S
C139        C145   1.539       .  S
C139        C144   1.542       .  S
C139        C553   1.543   1_545  S
C141        H142   1.110       .  S
C141        C147   1.536       .  S
C141        C148   1.533       .  S
C141        C556   1.531   1_545  S
C143        C161   1.498       .  S
C143        C549   1.531       .  S
C143        C146   1.393       .  D
C144        C147   1.397       .  D
C145        C172   1.506       .  S
C145        C148   1.394       .  D
C146        C190   1.497       .  S
C146        C551   1.542       .  S
C148        C179   1.495       .  S
C149        H150   1.109       .  S
C149        C155   1.536       .  S
C149        C154   1.530       .  S
C149        C973   1.532   1_455  S
C151        H152   1.111       .  S
C151        C157   1.540       .  S
C151        C158   1.540       .  S
C151        C976   1.540   1_455  S
C153        C969   1.532       .  S
C153        C156   1.395       .  D
C154        C188   1.499       .  S
C154        C157   1.394       .  D
C155        C181   1.497       .  S
C155        C158   1.395       .  D
C156        C971   1.540       .  S
C157        C163   1.497       .  S
C158        C170   1.505       .  S
C159        C160   1.413       .  A
C159        C164   1.413       .  A
C159        C295   1.486       .  S
C160        C161   1.404       .  A
C160        H165   1.081       .  S
C161        C162   1.394       .  A
C162        C163   1.394       .  A
C162        H166   1.074       .  S
C163        C164   1.406       .  A
C164        H167   1.081       .  S
C168        C169   1.414       .  A
C168        C173   1.417       .  A
C168        C259   1.488       .  S
C169        C170   1.403       .  A
C169        H174   1.081       .  S
C170        C171   1.398       .  A
C171        C172   1.398       .  A
C171        H175   1.074       .  S
C172        C173   1.407       .  A
C173        H176   1.081       .  S
C177        C178   1.412       .  A
C177        C182   1.413       .  A
C177        C202   1.483       .  S
C178        C179   1.405       .  A
C178        H183   1.081       .  S
C179        C180   1.391       .  A
C180        C181   1.390       .  A
C180        H184   1.073       .  S
C181        C182   1.406       .  A
C182        H185   1.080       .  S
C186        C187   1.413       .  A
C186        C191   1.415       .  A
C186        C223   1.488       .  S
C187        C188   1.406       .  A
C187        H192   1.081   1_455  S
C188        C189   1.394       .  A
C189        C190   1.394       .  A
C189        H193   1.074       .  S
C190        C191   1.405       .  A
C191        H194   1.081       .  S
C195        C200   1.381       .  A
C195        C196   1.403       .  A
C195        N201   1.341       .  A
C196        C197   1.403       .  A
C196        H207   1.083       .  S
C197        C206   1.377       .  A
C197        C198   1.385       .  A
C198        C199   1.403       .  A
C198        N204   1.342       .  A
C199        C200   1.400       .  A
C199        H208   1.083       .  S
C200        C203   1.375       .  A
N201        C202   1.359       .  A
N201        H211   1.044       .  S
C202        C203   1.400       .  A
C203        H209   1.082       .  S
N204        C205   1.356       .  A
N204        H212   1.045       .  S
C205        C206   1.397       .  A
C206        H210   1.083       .  S
C213       C1038   1.384       .  A
C213       C1034   1.402       .  A
C213        N219   1.342       .  A
C214        C215   1.401       .  A
C214       C1033   1.402       .  A
C214       H1045   1.083       .  S
C215        C224   1.375       .  A
C215        C216   1.381   1_455  A
C216        C217   1.405       .  A
C216        N222   1.343       .  A
C217        C218   1.404       .  A
C217        H226   1.083       .  S
C218       C1033   1.384   1_655  A
C218       C1041   1.379       .  A
N219        C220   1.356       .  A
N219        H229   1.045       .  S
C220        C221   1.398       .  A
C221       C1038   1.379       .  A
C221        H227   1.083       .  S
N222        C223   1.361   1_655  A
N222        H230   1.044       .  S
C223        C224   1.400       .  A
C224        H228   1.082       .  S
H225       C1034   1.083       .  S
C231        C232   1.402       .  A
C231        C646   1.384       .  A
C231        N237   1.342       .  A
C232        C643   1.400       .  A
C232        H243   1.083       .  S
C233        C242   1.376       .  A
C233        C234   1.381       .  A
C233        C642   1.401       .  A
C234        C235   1.403       .  A
C234        N240   1.343       .  A
C235        C236   1.404       .  A
C235        H244   1.083       .  S
C236        C641   1.384       .  A
C236        C649   1.377       .  A
N237        C238   1.356       .  A
N237        H247   1.045       .  S
C238        C239   1.398       .  A
C239        C646   1.377       .  A
C239        H655   1.083       .  S
N240        C241   1.360       .  A
N240        H248   1.044       .  S
C241        C242   1.400       .  A
C242        H246   1.081   1_545  S
H245        C649   1.083       .  S
C249        C254   1.384       .  A
C249        C250   1.401       .  A
C249        N255   1.341       .  A
C250        C251   1.400       .  A
C250        H261   1.083       .  S
C251        C260   1.373       .  A
C251        C252   1.381       .  A
C252        C253   1.404       .  A
C252        N258   1.344       .  A
C253        C254   1.403       .  A
C253        H262   1.082       .  S
C254        C257   1.378       .  A
N255        C256   1.355       .  A
N255        H265   1.045       .  S
C256        C257   1.397       .  A
C257        H263   1.083       .  S
N258        C259   1.360       .  A
N258        H266   1.044       .  S
C259        C260   1.401       .  A
C260        H264   1.081       .  S
C267        C268   1.404       .  A
C267        C682   1.384   1_545  A
C267        N683   1.342   1_545  A
C268        C269   1.402       .  A
C268        H279   1.082       .  S
C269        C278   1.376       .  A
C269        C270   1.381   1_545  A
C270        C681   1.404       .  A
C270        N276   1.342       .  A
C271        C272   1.402       .  A
C271        C680   1.401       .  A
C271        H280   1.083       .  S
C272        C275   1.375       .  A
C272        C677   1.385       .  A
N273        C274   1.357       .  A
N273        C677   1.343       .  A
N273        H693   1.045       .  S
C274        C275   1.397       .  A
C275        H281   1.083       .  S
N276        C277   1.360   1_565  A
N276        H284   1.043       .  S
C277        C278   1.401       .  A
C278        H282   1.082       .  S
H283        N683   1.045   1_545  S
C285        C286   1.402       .  A
C285       C1110   1.384       .  A
C285       N1111   1.343       .  A
C286        C287   1.401       .  A
C286        H297   1.083       .  S
C287        C296   1.373       .  A
C287        C288   1.381       .  A
C288       C1109   1.404   1_455  A
C288        N294   1.344       .  A
C289        C290   1.405       .  A
C289       C1108   1.404       .  A
C289        H298   1.082       .  S
C290        C293   1.379       .  A
C290       C1105   1.384       .  A
N291        C292   1.356       .  A
N291       C1105   1.343       .  A
N291       H1121   1.045       .  S
C292        C293   1.398       .  A
C293        H299   1.083       .  S
N294        C295   1.360       .  A
N294        H302   1.044   1_455  S
C295        C296   1.400       .  A
C296        H300   1.081       .  S
H301       N1111   1.045       .  S
C303        C308   1.381   1_545  A
C303       C1124   1.403   1_455  A
C303        N309   1.342       .  A
C304        C305   1.403       .  A
C304       C1123   1.403       .  A
C304        H315   1.082       .  S
C305        C724   1.378       .  A
C305       C1536   1.384   1_545  A
C306       C1535   1.384       .  A
C306        C717   1.404       .  A
C306       N1132   1.342       .  A
C307        C308   1.399       .  A
C307        C716   1.401       .  A
C307        H316   1.083       .  S
C308        C311   1.373       .  A
N309        C310   1.359       .  A
N309        H319   1.044       .  S
C310        C311   1.399   1_545  A
C311        H317   1.081       .  S
N312        C313   1.356       .  A
N312       C1126   1.342       .  A
N312       H1140   1.045       .  S
C313        C314   1.397       .  A
C314        C715   1.378       .  A
C314        H318   1.083       .  S
H320       N1132   1.045       .  S
C321        C326   1.384       .  A
C321        C322   1.400       .  A
C321        N327   1.339       .  A
C322        C323   1.397       .  A
C322        H333   1.080       .  S
C323        C332   1.370       .  A
C323        C324   1.379       .  A
C324        C325   1.407       .  A
C324        N330   1.346       .  A
C325        C326   1.408       .  A
C325        H334   1.082       .  S
C326        C329   1.382       .  A
N327        C328   1.355       .  A
N327        H337   1.045       .  S
C328        C329   1.399       .  A
C329        H335   1.083       .  S
N330        C331   1.361       .  A
N330        H338   1.044       .  S
C331        C332   1.401       .  A
C332        H336   1.081       .  S
C339        C344   1.384       .  A
C339        C340   1.401       .  A
C339        N345   1.339       .  A
C340        C341   1.399       .  A
C340        H351   1.083       .  S
C341        C350   1.374       .  A
C341        C342   1.382       .  A
C342        C343   1.404       .  A
C342        N348   1.342       .  A
C343        C344   1.403       .  A
C343        H352   1.082       .  S
C344        C347   1.379       .  A
N345        C346   1.355       .  A
N345        H355   1.045       .  S
C346        C347   1.395       .  A
C347        H353   1.083       .  S
N348        C349   1.359       .  A
N348        H356   1.045       .  S
C349        C350   1.399       .  A
C350        H354   1.082       .  S
C357        C362   1.384       .  A
C357        C358   1.405       .  A
C357        N363   1.344       .  A
C358        C359   1.402       .  A
C358        H369   1.082       .  S
C359        C368   1.377       .  A
C359        C360   1.380       .  A
C360        C361   1.402       .  A
C360        N366   1.341       .  A
C361        C362   1.402       .  A
C361        H370   1.083       .  S
C362        C365   1.375       .  A
N363        C364   1.356       .  A
N363        H373   1.045       .  S
C364        C365   1.397       .  A
C365        H371   1.083       .  S
N366        C367   1.360       .  A
N366        H374   1.043       .  S
C367        C368   1.401       .  A
C368        H372   1.082       .  S
C375        C380   1.380       .  A
C375        C376   1.404       .  A
C375        N381   1.345       .  A
C376        C377   1.406       .  A
C376        H387   1.083       .  S
C377        C386   1.378       .  A
C377        C378   1.384       .  A
C378        C379   1.401       .  A
C378        N384   1.341       .  A
C379        C380   1.399       .  A
C379        H388   1.083       .  S
C380        C383   1.370       .  A
N381        C382   1.360       .  A
N381        H391   1.044       .  S
C382        C383   1.400       .  A
C383        H389   1.081       .  S
N384        C385   1.354       .  A
N384        H392   1.045       .  S
C385        C386   1.398       .  A
C386        H390   1.083       .  S
C393        C398   1.381       .  A
C393        C394   1.404       .  A
C393        N399   1.342       .  A
C394       C1215   1.404       .  A
C394        H405   1.083       .  S
C395       C1214   1.404       .  A
C395        C814   1.380       .  A
C395       C1626   1.383       .  A
C396        C397   1.403       .  A
C396       C1625   1.384       .  A
C396       N1222   1.341       .  A
C397        C808   1.400       .  A
C397        H406   1.083       .  S
C398        C401   1.381       .  A
C398        C807   1.403       .  A
N399        C400   1.360       .  A
N399        H409   1.044       .  S
C400        C401   1.400       .  A
C401        H407   1.082   1_545  S
N402        C403   1.355       .  A
N402       C1216   1.341       .  A
N402        H410   1.045       .  S
C403        C404   1.396       .  A
C404        C805   1.377       .  A
C404        H818   1.083       .  S
H408        C814   1.083       .  S
C411        C412   1.414       .  A
C411        C416   1.412       .  A
C411        C810   1.483       .  S
C412        C413   1.406       .  A
C412        H417   1.081       .  S
C413        C414   1.395       .  A
C413        C429   1.505       .  S
C414        C415   1.396       .  A
C414        H418   1.074       .  S
C415        C416   1.403       .  A
C415        C436   1.500       .  S
C416        H419   1.082       .  S
C420        H421   1.108       .  S
C420        C426   1.538       .  S
C420        C424   1.534       .  S
C422        H423   1.110       .  S
C422        C427   1.536       .  S
C422        C429   1.539       .  S
C424        C462   1.499       .  S
C424        C427   1.390       .  D
C425        C471   1.500       .  S
C425        C428   1.393       .  D
C426        C480   1.507       .  S
C426        C429   1.399       .  D
C427        C442   1.495       .  S
C428        C451   1.496       .  S
C430        H431   1.110       .  S
C430        C436   1.541       .  S
C430       C1255   1.540   1_455  S
C430        C434   1.536       .  S
C432        H433   1.108       .  S
C432       C1258   1.536   1_455  S
C432        C437   1.535       .  S
C432        C439   1.531       .  S
C434        C453   1.501       .  S
C434        C437   1.393       .  D
C435        C444   1.503       .  S
C435       C1250   1.540       .  S
C435        C438   1.397       .  D
C436        C439   1.395       .  D
C437        C469   1.495       .  S
C438        C460   1.505       .  S
C438       C1252   1.536       .  S
C439        C478   1.504       .  S
C440        C441   1.411       .  A
C440        C445   1.412       .  A
C440        C792   1.480       .  S
C441        C442   1.400       .  A
C441        H446   1.081       .  S
C442        C443   1.398       .  A
C443        C444   1.397       .  A
C443        H447   1.075       .  S
C444        C445   1.406       .  A
C445        H448   1.082       .  S
C449        C450   1.412       .  A
C449        C454   1.415       .  A
C449        C777   1.486       .  S
C450        C451   1.402       .  A
C450        H455   1.080       .  S
C451        C452   1.394       .  A
C452        C453   1.393       .  A
C452        H456   1.073       .  S
C453        C454   1.409       .  A
C454        H457   1.081       .  S
C458        C459   1.413       .  A
C458        C463   1.413       .  A
C458        C759   1.483       .  S
C459        C460   1.409       .  A
C459        H464   1.079       .  S
C460        C461   1.392       .  A
C461        C462   1.393       .  A
C461        H465   1.072       .  S
C462        C463   1.402       .  A
C463        H466   1.081       .  S
C467        C468   1.409       .  A
C467        C472   1.416       .  A
C467        C741   1.484       .  S
C468        C469   1.402       .  A
C468        H473   1.080       .  S
C469        C470   1.395       .  A
C470        C471   1.394       .  A
C470        H474   1.074       .  S
C471        C472   1.408       .  A
C472        H475   1.082       .  S
C476        C477   1.414       .  A
C476        C481   1.417       .  A
C476        C720   1.486       .  S
C477        C478   1.407       .  A
C477        H482   1.081       .  S
C478        C479   1.390       .  A
C479        C480   1.390       .  A
C479        H483   1.072       .  S
C480        C481   1.411       .  A
C481        H484   1.080       .  S
Zn485       O489   1.968       .  S
Zn485       O490   2.043       .  S
Zn485       O494   2.008       .  S
Zn485       O501   2.001       .  S
Zn486       O489   1.900       .  S
Zn486       O491   1.960       .  S
Zn486       O493   1.950       .  S
Zn486       O497   1.959       .  S
Zn487       O489   1.966       .  S
Zn487       O492   2.007       .  S
Zn487       O495   2.062       .  S
Zn487       O498   2.015       .  S
Zn488       O489   1.965       .  S
Zn488       O496   2.007       .  S
Zn488       O499   2.045       .  S
Zn488       O500   2.009       .  S
O490        C502   1.273       .  A
O491        C503   1.266       .  A
O492        C504   1.274       .  A
O493        C502   1.265       .  A
O494        C504   1.274       .  A
O495        C503   1.276       .  A
O496        C505   1.273       .  A
O497        C506   1.266       .  A
O498        C505   1.274       .  A
O499        C506   1.274       .  A
O500        C507   1.272       .  A
O501        C507   1.271       .  A
C502        C756   1.457       .  S
C503        C738   1.463       .  S
C504        C666   1.470       .  S
C505        C684   1.471       .  S
C506        C723   1.457       .  S
C507        C702   1.468       .  S
Zn508       O512   1.962       .  S
Zn508       O513   2.011       .  S
Zn508       O517   2.053       .  S
Zn508       O524   2.009       .  S
Zn509       O512   1.965       .  S
Zn509       O514   2.074   1_565  S
Zn509       O516   2.019   1_565  S
Zn509       O520   2.014       .  S
Zn510       O512   1.889       .  S
Zn510       O515   1.944   1_556  S
Zn510       O518   1.950   1_556  S
Zn510       O521   1.948   1_556  S
Zn511       O512   1.968       .  S
Zn511       O519   2.065       .  S
Zn511       O522   2.016       .  S
Zn511       O523   2.019       .  S
O513        C525   1.274       .  A
O514        C526   1.277   1_545  A
O515        C527   1.264   1_554  A
O516        C525   1.276   1_545  A
O517        C527   1.275       .  A
O518        C526   1.264   1_554  A
O519        C528   1.276       .  A
O520        C529   1.274       .  A
O521        C528   1.264   1_554  A
O522        C529   1.275       .  A
O523        C530   1.274       .  A
O524        C530   1.273       .  A
C525        C648   1.472   1_565  S
C526        C813   1.465   1_566  S
C527        C774   1.458   1_556  S
C528        C795   1.461   1_556  S
C529        C630   1.473       .  S
C530        C615   1.472       .  S
C531        C532   1.413       .  A
C531        C536   1.415       .  A
C531        C687   1.484       .  S
C532        C533   1.404       .  A
C532        H537   1.082       .  S
C533        C534   1.391       .  A
C533        C566   1.497       .  S
C534        C535   1.390       .  A
C534        H538   1.072       .  S
C535        C536   1.409       .  A
C535        C554   1.502       .  S
C536        H539   1.080       .  S
C540        C541   1.415       .  A
C540        C545   1.416       .  A
C540        C651   1.486       .  S
C541        C542   1.405       .  A
C541        H546   1.081       .  S
C542        C543   1.397       .  A
C542        C563   1.504       .  S
C543        C544   1.397       .  A
C543        H547   1.074       .  S
C544        C545   1.404       .  A
C544        C557   1.506       .  S
C545        H548   1.081       .  S
C549        H550   1.109       .  S
C549        C555   1.535       .  S
C549        C554   1.535       .  S
C551        H552   1.111       .  S
C551        C557   1.543       .  S
C551        C558   1.540       .  S
C553        C571   1.495       .  S
C553        C556   1.391       .  D
C554        C557   1.396       .  D
C555        C582   1.498       .  S
C555        C558   1.393       .  D
C556        C600   1.500       .  S
C558        C589   1.505       .  S
C559        H560   1.111       .  S
C559        C565   1.545       .  S
C559        C564   1.541       .  S
C559       C1383   1.540   1_455  S
C561        H562   1.109       .  S
C561        C567   1.533       .  S
C561       C1386   1.534   1_455  S
C561        C568   1.536       .  S
C563       C1379   1.540       .  S
C563        C566   1.394       .  D
C564        C598   1.501       .  S
C564        C567   1.393       .  D
C565        C591   1.507       .  S
C565        C568   1.397       .  D
C566       C1381   1.534       .  S
C567        C573   1.498       .  S
C568        C580   1.505       .  S
C569        C570   1.413       .  A
C569        C574   1.411       .  A
C569        C705   1.483       .  S
C570        C571   1.402       .  A
C570        H575   1.081       .  S
C571        C572   1.396       .  A
C572        C573   1.396       .  A
C572        H576   1.075       .  S
C573        C574   1.405       .  A
C574        H577   1.082   1_455  S
C578        C579   1.417       .  A
C578        C583   1.412       .  A
C578        C669   1.486       .  S
C579        C580   1.409       .  A
C579        H584   1.081       .  S
C580        C581   1.392       .  A
C581        C582   1.392       .  A
C581        H585   1.072       .  S
C582        C583   1.404       .  A
C583        H586   1.080       .  S
C587        C588   1.415       .  A
C587        C592   1.416       .  A
C587        C612   1.488       .  S
C588        C589   1.406       .  A
C588        H593   1.081       .  S
C589        C590   1.397       .  A
C590        C591   1.397       .  A
C590        H594   1.074       .  S
C591        C592   1.404       .  A
C592        H595   1.081       .  S
C596        C597   1.416       .  A
C596        C601   1.414       .  A
C596        C633   1.489       .  S
C597        C598   1.408       .  A
C597        H602   1.082       .  S
C598        C599   1.395       .  A
C599        C600   1.395       .  A
C599        H603   1.074       .  S
C600        C601   1.404       .  A
C601        H604   1.081       .  S
C605        C610   1.381       .  A
C605        C606   1.405       .  A
C605        N611   1.345       .  A
C606        C607   1.405       .  A
C606        H617   1.082       .  S
C607        C616   1.379       .  A
C607        C608   1.384       .  A
C608        C609   1.402       .  A
C608        N614   1.342       .  A
C609        C610   1.400       .  A
C609        H618   1.083       .  S
C610        C613   1.373       .  A
N611        C612   1.361       .  A
N611        H621   1.044       .  S
C612        C613   1.400       .  A
C613        H619   1.081       .  S
N614        C615   1.356       .  A
N614        H622   1.045       .  S
C615        C616   1.399       .  A
C616        H620   1.083       .  S
C623       C1448   1.384       .  A
C623       C1444   1.404       .  A
C623        N629   1.344       .  A
C624       C1443   1.404       .  A
C624        C625   1.403       .  A
C624       H1455   1.083       .  S
C625        C634   1.375       .  A
C625        C626   1.381       .  A
C626        C627   1.404   1_455  A
C626        N632   1.344       .  A
C627        C628   1.404       .  A
C627        H636   1.082       .  S
C628       C1443   1.384   1_655  A
C628       C1451   1.377       .  A
N629        C630   1.357       .  A
N629        H639   1.045       .  S
C630        C631   1.397       .  A
C631       C1448   1.377       .  A
C631        H637   1.083       .  S
N632        C633   1.360       .  A
N632        H640   1.044   1_455  S
C633        C634   1.402       .  A
C634        H638   1.081       .  S
H635       C1444   1.083       .  S
C641        C642   1.403       .  A
C641        N647   1.342       .  A
C642        H653   1.083   1_545  S
C643        C652   1.373       .  A
C643        C644   1.381       .  A
C644        C645   1.403       .  A
C644        N650   1.343       .  A
C645        C646   1.404       .  A
C645        H654   1.083       .  S
N647        C648   1.357       .  A
N647        H657   1.045   1_545  S
C648        C649   1.397       .  A
N650        C651   1.360       .  A
N650        H658   1.044       .  S
C651        C652   1.400       .  A
C652        H656   1.081       .  S
C659        C664   1.385       .  A
C659        C660   1.404       .  A
C659        N665   1.342       .  A
C660        C661   1.401       .  A
C660        H671   1.083       .  S
C661        C670   1.377       .  A
C661        C662   1.381       .  A
C662        C663   1.402       .  A
C662        N668   1.341       .  A
C663        C664   1.402       .  A
C663        H672   1.083       .  S
C664        C667   1.376       .  A
N665        C666   1.357       .  A
N665        H675   1.045       .  S
C666        C667   1.397       .  A
C667        H673   1.083       .  S
N668        C669   1.360       .  A
N668        H676   1.044       .  S
C669        C670   1.400       .  A
C670        H674   1.082       .  S
C677        C678   1.404       .  A
C678        C679   1.401       .  A
C678        H689   1.083       .  S
C679        C688   1.374       .  A
C679        C680   1.381       .  A
C680        N686   1.343       .  A
C681        C682   1.403       .  A
C681        H690   1.083       .  S
C682        C685   1.378       .  A
N683        C684   1.357       .  A
C684        C685   1.397       .  A
C685        H691   1.083       .  S
N686        C687   1.359       .  A
N686        H694   1.044       .  S
C687        C688   1.401       .  A
C688        H692   1.082       .  S
C695       C1520   1.384   1_455  A
C695        C696   1.402       .  A
C695       N1521   1.341       .  A
C696        C697   1.400       .  A
C696        H707   1.083       .  S
C697        C706   1.375       .  A
C697        C698   1.381   1_455  A
C698       C1519   1.403       .  A
C698        N704   1.341       .  A
C699       C1518   1.403       .  A
C699        C700   1.402       .  A
C699        H708   1.083       .  S
C700       C1515   1.384       .  A
C700        C703   1.377       .  A
N701       C1515   1.341       .  A
N701        C702   1.356       .  A
N701       H1531   1.045       .  S
C702        C703   1.397       .  A
C703        H709   1.083       .  S
N704        C705   1.360   1_655  A
N704        H712   1.044       .  S
C705        C706   1.399       .  A
C706        H710   1.081       .  S
H711       N1521   1.045       .  S
C713        C718   1.381       .  A
C713       C1534   1.404       .  A
C713        N719   1.343       .  A
C714       C1533   1.404       .  A
C714        C715   1.404       .  A
C714        H725   1.083       .  S
C715       C1126   1.384       .  A
C716       C1125   1.384   1_565  A
C716       N1542   1.340       .  A
C717        C718   1.401       .  A
C717        H726   1.083       .  S
C718        C721   1.378       .  A
N719        C720   1.360       .  A
N719        H729   1.044       .  S
C720        C721   1.399       .  A
C721        H727   1.082       .  S
N722       C1536   1.340       .  A
N722        C723   1.355       .  A
N722       H1550   1.045       .  S
C723        C724   1.395   1_565  A
C724        H728   1.083       .  S
H730       N1542   1.045       .  S
C731        C736   1.384       .  A
C731        C732   1.405       .  A
C731        N737   1.344       .  A
C732        C733   1.402       .  A
C732        H743   1.082       .  S
C733        C742   1.377       .  A
C733        C734   1.380       .  A
C734        C735   1.402       .  A
C734        N740   1.341       .  A
C735        C736   1.402       .  A
C735        H744   1.082       .  S
C736        C739   1.375       .  A
N737        C738   1.356       .  A
N737        H747   1.045       .  S
C738        C739   1.398       .  A
C739        H745   1.083       .  S
N740        C741   1.361       .  A
N740        H748   1.044       .  S
C741        C742   1.399       .  A
C742        H746   1.082       .  S
C749        C754   1.385       .  A
C749        C750   1.400       .  A
C749        N755   1.340       .  A
C750        C751   1.397       .  A
C750        H761   1.083       .  S
C751        C760   1.370       .  A
C751        C752   1.380       .  A
C752        C753   1.403       .  A
C752        N758   1.344       .  A
C753        C754   1.405       .  A
C753        H762   1.083       .  S
C754        C757   1.377       .  A
N755        C756   1.354       .  A
N755        H765   1.045       .  S
C756        C757   1.398       .  A
C757        H763   1.083       .  S
N758        C759   1.360       .  A
N758        H766   1.044       .  S
C759        C760   1.399       .  A
C760        H764   1.082       .  S
C767        C772   1.383       .  A
C767        C768   1.402       .  A
C767        N773   1.340       .  A
C768        C769   1.399       .  A
C768        H779   1.083       .  S
C769        C778   1.372       .  A
C769        C770   1.380       .  A
C770        C771   1.404       .  A
C770        N776   1.344       .  A
C771        C772   1.405       .  A
C771        H780   1.082       .  S
C772        C775   1.379       .  A
N773        C774   1.356       .  A
N773        H783   1.045       .  S
C774        C775   1.397       .  A
C775        H781   1.083       .  S
N776        C777   1.360       .  A
N776        H784   1.044       .  S
C777        C778   1.401       .  A
C778        H782   1.081       .  S
C785        C790   1.381       .  A
C785        C786   1.405       .  A
C785        N791   1.342       .  A
C786        C787   1.404       .  A
C786        H797   1.083       .  S
C787        C796   1.382       .  A
C787        C788   1.383       .  A
C788        C789   1.402       .  A
C788        N794   1.339       .  A
C789        C790   1.398       .  A
C789        H798   1.083       .  S
C790        C793   1.374       .  A
N791        C792   1.359       .  A
N791        H801   1.044       .  S
C792        C793   1.399       .  A
C793        H799   1.082       .  S
N794        C795   1.355       .  A
N794        H802   1.045       .  S
C795        C796   1.398       .  A
C796        H800   1.083       .  S
C803        C808   1.381       .  A
C803        C804   1.403       .  A
C803        N809   1.341       .  A
C804       C1625   1.403       .  A
C804        H815   1.083   1_455  S
C805       C1624   1.403       .  A
C805       C1216   1.384       .  A
C806       C1215   1.383       .  A
C806        C807   1.407       .  A
C806       N1632   1.343       .  A
C807        H816   1.083   1_545  S
C808        C811   1.375       .  A
N809        C810   1.360       .  A
N809        H819   1.044       .  S
C810        C811   1.399       .  A
C811        H817   1.082       .  S
N812       C1626   1.343       .  A
N812        C813   1.358       .  A
N812        H820   1.045   1_545  S
C813        C814   1.398       .  A
C821        C822   1.417       .  A
C821        C826   1.413       .  A
C821       C1220   1.486       .  S
C822        C823   1.411       .  A
C822        H827   1.080       .  S
C823        C824   1.392       .  A
C823        C839   1.507       .  S
C824        C825   1.393       .  A
C824        H828   1.072       .  S
C825        C826   1.405       .  A
C825        C846   1.501       .  S
C826        H829   1.082       .  S
C830        H831   1.111       .  S
C830        C836   1.543       .  S
C830       C1245   1.539   1_545  S
C830        C834   1.537       .  S
C832        H833   1.109       .  S
C832       C1248   1.533   1_545  S
C832        C837   1.536       .  S
C832        C839   1.536       .  S
C834        C872   1.498       .  S
C834        C837   1.389       .  D
C835        C881   1.495       .  S
C835       C1240   1.533       .  S
C835        C838   1.394       .  D
C836        C890   1.502       .  S
C836        C839   1.397       .  D
C837        C852   1.496       .  S
C838        C861   1.499       .  S
C838       C1242   1.536       .  S
C840        H841   1.109       .  S
C840        C846   1.533       .  S
C840        C844   1.535       .  S
C842        H843   1.111       .  S
C842        C847   1.535       .  S
C842        C849   1.540       .  S
C844        C863   1.498       .  S
C844        C847   1.396       .  D
C845        C854   1.507       .  S
C845        C848   1.398       .  D
C846        C849   1.393       .  D
C847        C879   1.500       .  S
C848        C870   1.504       .  S
C849        C888   1.500       .  S
C850        C851   1.412       .  A
C850        C855   1.416       .  A
C850       C1202   1.486       .  S
C851        C852   1.400       .  A
C851        H856   1.081       .  S
C852        C853   1.393       .  A
C853        C854   1.392       .  A
C853        H857   1.072       .  S
C854        C855   1.412       .  A
C855        H858   1.080       .  S
C859        C860   1.415       .  A
C859        C864   1.413       .  A
C859       C1187   1.486       .  S
C860        C861   1.407       .  A
C860        H865   1.082       .  S
C861        C862   1.392       .  A
C862        C863   1.392       .  A
C862        H866   1.073       .  S
C863        C864   1.405       .  A
C864        H867   1.080       .  S
C868        C869   1.413       .  A
C868        C873   1.412       .  A
C868       C1169   1.480       .  S
C869        C870   1.407       .  A
C869        H874   1.083       .  S
C870        C871   1.397       .  A
C871        C872   1.398       .  A
C871        H875   1.075       .  S
C872        C873   1.400       .  A
C873        H876   1.081       .  S
C877        C878   1.416       .  A
C877        C882   1.412       .  A
C877       C1151   1.487       .  S
C878        C879   1.410       .  A
C878        H883   1.082       .  S
C879        C880   1.392       .  A
C880        C881   1.392       .  A
C880        H884   1.074       .  S
C881        C882   1.402       .  A
C882        H885   1.080       .  S
C886        C887   1.412       .  A
C886        C891   1.412       .  A
C886       C1130   1.481       .  S
C887        C888   1.404       .  A
C887        H892   1.082       .  S
C888        C889   1.397       .  A
C889        C890   1.397       .  A
C889        H893   1.074       .  S
C890        C891   1.402       .  A
C891        H894   1.080   1_545  S
Zn895       O899   1.952       .  S
Zn895       O900   2.047       .  S
Zn895       O904   2.009       .  S
Zn895       O911   2.018       .  S
Zn896       O899   1.873       .  S
Zn896       O901   1.966       .  S
Zn896       O903   1.966       .  S
Zn896       O907   1.950       .  S
Zn897       O899   1.939       .  S
Zn897       O902   1.993       .  S
Zn897       O905   2.061       .  S
Zn897       O908   2.015       .  S
Zn898       O899   1.942       .  S
Zn898       O906   2.007       .  S
Zn898       O909   2.056       .  S
Zn898       O910   2.016       .  S
O900        C912   1.277       .  A
O901        C913   1.265       .  A
O902        C914   1.272       .  A
O903        C912   1.268       .  A
O904        C914   1.273       .  A
O905        C913   1.274       .  A
O906        C915   1.275       .  A
O907        C916   1.265       .  A
O908        C915   1.277       .  A
O909        C916   1.276       .  A
O910        C917   1.274       .  A
O911        C917   1.275       .  A
C912       C1166   1.458       .  S
C913       C1148   1.464       .  S
C914       C1076   1.467       .  S
C915       C1094   1.470       .  S
C916       C1133   1.460   1_655  S
C917       C1112   1.473       .  S
Zn918       O922   1.965       .  S
Zn918       O923   2.014       .  S
Zn918       O927   2.054       .  S
Zn918       O934   2.006       .  S
Zn919       O922   1.961       .  S
Zn919       O924   2.043       .  S
Zn919       O926   2.001       .  S
Zn919       O930   2.010       .  S
Zn920       O922   1.900       .  S
Zn920       O925   1.961   1_556  S
Zn920       O928   1.966   1_556  S
Zn920       O931   1.960   1_556  S
Zn921       O922   1.971       .  S
Zn921       O929   2.048       .  S
Zn921       O932   2.012       .  S
Zn921       O933   2.012       .  S
O923        C935   1.274       .  A
O924        C936   1.274       .  A
O925        C937   1.266   1_554  A
O926        C935   1.272       .  A
O927        C937   1.275       .  A
O928        C936   1.266   1_554  A
O929        C938   1.274       .  A
O930        C939   1.273       .  A
O931        C938   1.266   1_554  A
O932        C939   1.273       .  A
O933        C940   1.274       .  A
O934        C940   1.273       .  A
C935       C1058   1.469       .  S
C936       C1223   1.458   1_556  S
C937       C1184   1.462   1_556  S
C938       C1205   1.459   1_556  S
C939       C1040   1.471       .  S
C940       C1025   1.470       .  S
C941        C942   1.416       .  A
C941        C946   1.415       .  A
C941       C1097   1.488       .  S
C942        C943   1.405       .  A
C942        H947   1.082       .  S
C943        C944   1.397       .  A
C943        C976   1.504       .  S
C944        C945   1.396       .  A
C944        H948   1.074       .  S
C945        C946   1.405       .  A
C945        C964   1.505       .  S
C946        H949   1.080   1_545  S
C950        C951   1.413       .  A
C950        C955   1.415       .  A
C950       C1061   1.486       .  S
C951        C952   1.407       .  A
C951        H956   1.081       .  S
C952        C953   1.391       .  A
C952        C973   1.499       .  S
C953        C954   1.391       .  A
C953        H957   1.072       .  S
C954        C955   1.407       .  A
C954        C967   1.501       .  S
C955        H958   1.080       .  S
C959        H960   1.111       .  S
C959        C965   1.539       .  S
C959        C964   1.542       .  S
C959       C1373   1.543   1_545  S
C961        H962   1.110       .  S
C961        C967   1.536       .  S
C961       C1376   1.531   1_545  S
C961        C968   1.533       .  S
C963        C981   1.498       .  S
C963       C1369   1.531       .  S
C963        C966   1.393       .  D
C964        C967   1.397       .  D
C965        C992   1.506       .  S
C965        C968   1.394       .  D
C966       C1010   1.497       .  S
C966       C1371   1.542       .  S
C968        C999   1.495       .  S
C969        H970   1.109       .  S
C969        C975   1.536       .  S
C969        C974   1.530       .  S
C971        H972   1.111       .  S
C971        C977   1.540       .  S
C971        C978   1.540       .  S
C973        C976   1.395       .  D
C974       C1008   1.499       .  S
C974        C977   1.394       .  D
C975       C1001   1.497       .  S
C975        C978   1.395       .  D
C977        C983   1.497       .  S
C978        C990   1.505       .  S
C979        C980   1.413       .  A
C979        C984   1.413       .  A
C979       C1115   1.486       .  S
C980        C981   1.404       .  A
C980        H985   1.081       .  S
C981        C982   1.394       .  A
C982        C983   1.394       .  A
C982        H986   1.074       .  S
C983        C984   1.406       .  A
C984        H987   1.081       .  S
C988        C989   1.414       .  A
C988        C993   1.417       .  A
C988       C1079   1.488       .  S
C989        C990   1.403       .  A
C989        H994   1.081       .  S
C990        C991   1.398       .  A
C991        C992   1.398       .  A
C991        H995   1.074       .  S
C992        C993   1.407       .  A
C993        H996   1.081       .  S
C997        C998   1.412       .  A
C997       C1002   1.413       .  A
C997       C1022   1.483       .  S
C998        C999   1.405       .  A
C998       H1003   1.081       .  S
C999       C1000   1.391       .  A
C1000      C1001   1.390       .  A
C1000      H1004   1.073       .  S
C1001      C1002   1.406       .  A
C1002      H1005   1.080       .  S
C1006      C1007   1.413       .  A
C1006      C1011   1.415       .  A
C1006      C1043   1.488       .  S
C1007      C1008   1.406       .  A
C1007      H1012   1.081       .  S
C1008      C1009   1.394       .  A
C1009      C1010   1.394       .  A
C1009      H1013   1.074       .  S
C1010      C1011   1.405       .  A
C1011      H1014   1.081       .  S
C1015      C1020   1.381       .  A
C1015      C1016   1.403       .  A
C1015      N1021   1.341       .  A
C1016      C1017   1.403       .  A
C1016      H1027   1.083       .  S
C1017      C1026   1.377       .  A
C1017      C1018   1.385       .  A
C1018      C1019   1.403       .  A
C1018      N1024   1.342       .  A
C1019      C1020   1.400       .  A
C1019      H1028   1.083       .  S
C1020      C1023   1.375       .  A
N1021      C1022   1.359       .  A
N1021      H1031   1.044       .  S
C1022      C1023   1.400       .  A
C1023      H1029   1.082       .  S
N1024      C1025   1.356       .  A
N1024      H1032   1.045       .  S
C1025      C1026   1.397       .  A
C1026      H1030   1.083       .  S
C1033      N1039   1.342       .  A
C1034      C1035   1.401       .  A
C1035      C1044   1.375       .  A
C1035      C1036   1.381       .  A
C1036      C1037   1.405       .  A
C1036      N1042   1.343       .  A
C1037      C1038   1.404       .  A
C1037      H1046   1.083       .  S
N1039      C1040   1.356   1_455  A
N1039      H1049   1.045       .  S
C1040      C1041   1.398       .  A
C1041      H1047   1.083       .  S
N1042      C1043   1.361       .  A
N1042      H1050   1.044       .  S
C1043      C1044   1.400       .  A
C1044      H1048   1.082       .  S
C1051      C1466   1.384       .  A
C1051      C1052   1.402       .  A
C1051      N1057   1.342       .  A
C1052      C1463   1.400       .  A
C1052      H1063   1.083       .  S
C1053      C1462   1.401       .  A
C1053      C1062   1.376       .  A
C1053      C1054   1.381       .  A
C1054      C1055   1.403       .  A
C1054      N1060   1.343       .  A
C1055      C1056   1.404       .  A
C1055      H1064   1.083       .  S
C1056      C1461   1.384       .  A
C1056      C1469   1.377       .  A
N1057      C1058   1.356       .  A
N1057      H1067   1.045       .  S
C1058      C1059   1.398       .  A
C1059      C1466   1.377       .  A
C1059      H1475   1.083       .  S
N1060      C1061   1.360       .  A
N1060      H1068   1.044       .  S
C1061      C1062   1.400       .  A
C1062      H1066   1.081   1_545  S
H1065      C1469   1.083       .  S
C1069      C1074   1.384       .  A
C1069      C1070   1.401       .  A
C1069      N1075   1.341       .  A
C1070      C1071   1.400       .  A
C1070      H1081   1.083       .  S
C1071      C1080   1.373       .  A
C1071      C1072   1.381       .  A
C1072      C1073   1.404       .  A
C1072      N1078   1.344       .  A
C1073      C1074   1.403       .  A
C1073      H1082   1.082       .  S
C1074      C1077   1.378       .  A
N1075      C1076   1.355       .  A
N1075      H1085   1.045       .  S
C1076      C1077   1.397       .  A
C1077      H1083   1.083       .  S
N1078      C1079   1.360       .  A
N1078      H1086   1.044       .  S
C1079      C1080   1.401       .  A
C1080      H1084   1.081       .  S
C1087      C1502   1.384   1_545  A
C1087      C1088   1.404       .  A
C1087      N1503   1.342   1_545  A
C1088      C1089   1.402       .  A
C1088      H1099   1.082       .  S
C1089      C1098   1.376       .  A
C1089      C1090   1.381   1_545  A
C1090      C1501   1.404       .  A
C1090      N1096   1.342       .  A
C1091      C1500   1.401       .  A
C1091      C1092   1.402       .  A
C1091      H1100   1.083       .  S
C1092      C1497   1.385       .  A
C1092      C1095   1.375       .  A
N1093      C1497   1.343       .  A
N1093      C1094   1.357       .  A
N1093      H1513   1.045       .  S
C1094      C1095   1.397       .  A
C1095      H1101   1.083       .  S
N1096      C1097   1.360   1_565  A
N1096      H1104   1.043       .  S
C1097      C1098   1.401       .  A
C1098      H1102   1.082       .  S
H1103      N1503   1.045   1_545  S
C1105      C1106   1.402       .  A
C1106      C1107   1.401       .  A
C1106      H1117   1.083       .  S
C1107      C1116   1.373       .  A
C1107      C1108   1.381       .  A
C1108      N1114   1.344       .  A
C1109      C1110   1.405   1_655  A
C1109      H1118   1.082       .  S
C1110      C1113   1.379   1_455  A
N1111      C1112   1.356   1_455  A
C1112      C1113   1.398       .  A
C1113      H1119   1.083       .  S
N1114      C1115   1.360       .  A
N1114      H1122   1.044       .  S
C1115      C1116   1.400       .  A
C1116      H1120   1.081       .  S
C1123      C1128   1.381   1_545  A
C1123      N1129   1.342       .  A
C1124      C1125   1.403   1_655  A
C1124      H1135   1.082       .  S
C1125      C1544   1.378   1_455  A
C1126      C1537   1.404       .  A
C1127      C1536   1.401       .  A
C1127      C1128   1.399       .  A
C1127      H1136   1.083       .  S
C1128      C1131   1.373       .  A
N1129      C1130   1.359       .  A
N1129      H1139   1.044       .  S
C1130      C1131   1.399   1_545  A
C1131      H1137   1.081       .  S
N1132      C1133   1.356       .  A
C1133      C1134   1.397       .  A
C1134      C1535   1.378       .  A
C1134      H1138   1.083       .  S
C1141      C1146   1.384       .  A
C1141      C1142   1.400       .  A
C1141      N1147   1.339       .  A
C1142      C1143   1.397       .  A
C1142      H1153   1.080       .  S
C1143      C1152   1.370       .  A
C1143      C1144   1.379       .  A
C1144      C1145   1.407       .  A
C1144      N1150   1.346       .  A
C1145      C1146   1.408       .  A
C1145      H1154   1.082       .  S
C1146      C1149   1.382       .  A
N1147      C1148   1.355       .  A
N1147      H1157   1.045       .  S
C1148      C1149   1.399       .  A
C1149      H1155   1.083       .  S
N1150      C1151   1.361       .  A
N1150      H1158   1.044       .  S
C1151      C1152   1.401       .  A
C1152      H1156   1.081       .  S
C1159      C1164   1.384       .  A
C1159      C1160   1.401       .  A
C1159      N1165   1.339       .  A
C1160      C1161   1.399       .  A
C1160      H1171   1.083       .  S
C1161      C1170   1.374       .  A
C1161      C1162   1.382       .  A
C1162      C1163   1.404       .  A
C1162      N1168   1.342       .  A
C1163      C1164   1.403       .  A
C1163      H1172   1.082       .  S
C1164      C1167   1.379       .  A
N1165      C1166   1.355       .  A
N1165      H1175   1.045       .  S
C1166      C1167   1.395       .  A
C1167      H1173   1.083       .  S
N1168      C1169   1.359       .  A
N1168      H1176   1.045       .  S
C1169      C1170   1.399       .  A
C1170      H1174   1.082       .  S
C1177      C1182   1.384       .  A
C1177      C1178   1.405       .  A
C1177      N1183   1.344       .  A
C1178      C1179   1.402       .  A
C1178      H1189   1.082       .  S
C1179      C1188   1.377       .  A
C1179      C1180   1.380       .  A
C1180      C1181   1.402       .  A
C1180      N1186   1.341       .  A
C1181      C1182   1.402       .  A
C1181      H1190   1.083       .  S
C1182      C1185   1.375       .  A
N1183      C1184   1.356       .  A
N1183      H1193   1.045       .  S
C1184      C1185   1.397       .  A
C1185      H1191   1.083       .  S
N1186      C1187   1.360       .  A
N1186      H1194   1.043       .  S
C1187      C1188   1.401       .  A
C1188      H1192   1.082       .  S
C1195      C1200   1.380       .  A
C1195      C1196   1.404       .  A
C1195      N1201   1.345       .  A
C1196      C1197   1.406       .  A
C1196      H1207   1.083       .  S
C1197      C1206   1.378       .  A
C1197      C1198   1.384       .  A
C1198      C1199   1.401       .  A
C1198      N1204   1.341       .  A
C1199      C1200   1.399       .  A
C1199      H1208   1.083       .  S
C1200      C1203   1.370       .  A
N1201      C1202   1.360       .  A
N1201      H1211   1.044       .  S
C1202      C1203   1.400       .  A
C1203      H1209   1.081       .  S
N1204      C1205   1.354       .  A
N1204      H1212   1.045       .  S
C1205      C1206   1.398       .  A
C1206      H1210   1.083       .  S
C1213      C1218   1.381       .  A
C1213      C1214   1.404       .  A
C1213      N1219   1.342       .  A
C1214      H1225   1.083       .  S
C1215      C1634   1.380       .  A
C1216      C1217   1.403       .  A
C1217      C1628   1.400       .  A
C1217      H1226   1.083       .  S
C1218      C1627   1.403       .  A
C1218      C1221   1.381       .  A
N1219      C1220   1.360       .  A
N1219      H1229   1.044       .  S
C1220      C1221   1.400       .  A
C1221      H1227   1.082   1_545  S
N1222      C1223   1.355   1_455  A
N1222      H1230   1.045       .  S
C1223      C1224   1.396       .  A
C1224      C1625   1.377   1_655  A
C1224      H1638   1.083       .  S
H1228      C1634   1.083       .  S
C1231      C1232   1.414       .  A
C1231      C1236   1.412       .  A
C1231      C1630   1.483       .  S
C1232      C1233   1.406       .  A
C1232      H1237   1.081       .  S
C1233      C1234   1.395       .  A
C1233      C1249   1.505       .  S
C1234      C1235   1.396       .  A
C1234      H1238   1.074       .  S
C1235      C1236   1.403       .  A
C1235      C1256   1.500       .  S
C1236      H1239   1.082       .  S
C1240      H1241   1.108       .  S
C1240      C1246   1.538       .  S
C1240      C1244   1.534       .  S
C1242      H1243   1.110       .  S
C1242      C1247   1.536       .  S
C1242      C1249   1.539       .  S
C1244      C1282   1.499       .  S
C1244      C1247   1.390       .  D
C1245      C1291   1.500       .  S
C1245      C1248   1.393       .  D
C1246      C1300   1.507       .  S
C1246      C1249   1.399       .  D
C1247      C1262   1.495       .  S
C1248      C1271   1.496       .  S
C1250      H1251   1.110       .  S
C1250      C1256   1.541       .  S
C1250      C1254   1.536       .  S
C1252      H1253   1.108       .  S
C1252      C1257   1.535       .  S
C1252      C1259   1.531       .  S
C1254      C1273   1.501       .  S
C1254      C1257   1.393       .  D
C1255      C1264   1.503       .  S
C1255      C1258   1.397       .  D
C1256      C1259   1.395       .  D
C1257      C1289   1.495       .  S
C1258      C1280   1.505       .  S
C1259      C1298   1.504       .  S
C1260      C1261   1.411       .  A
C1260      C1265   1.412       .  A
C1260      C1612   1.480       .  S
C1261      C1262   1.400       .  A
C1261      H1266   1.081       .  S
C1262      C1263   1.398       .  A
C1263      C1264   1.397       .  A
C1263      H1267   1.075       .  S
C1264      C1265   1.406       .  A
C1265      H1268   1.082       .  S
C1269      C1270   1.412       .  A
C1269      C1274   1.415       .  A
C1269      C1597   1.486       .  S
C1270      C1271   1.402       .  A
C1270      H1275   1.080       .  S
C1271      C1272   1.394       .  A
C1272      C1273   1.393       .  A
C1272      H1276   1.073       .  S
C1273      C1274   1.409       .  A
C1274      H1277   1.081       .  S
C1278      C1279   1.413       .  A
C1278      C1283   1.413       .  A
C1278      C1579   1.483       .  S
C1279      C1280   1.409       .  A
C1279      H1284   1.079       .  S
C1280      C1281   1.392       .  A
C1281      C1282   1.393       .  A
C1281      H1285   1.072       .  S
C1282      C1283   1.402       .  A
C1283      H1286   1.081       .  S
C1287      C1288   1.409       .  A
C1287      C1292   1.416       .  A
C1287      C1561   1.484       .  S
C1288      C1289   1.402       .  A
C1288      H1293   1.080       .  S
C1289      C1290   1.395       .  A
C1290      C1291   1.394       .  A
C1290      H1294   1.074       .  S
C1291      C1292   1.408       .  A
C1292      H1295   1.082       .  S
C1296      C1297   1.414       .  A
C1296      C1301   1.417       .  A
C1296      C1540   1.486       .  S
C1297      C1298   1.407       .  A
C1297      H1302   1.081       .  S
C1298      C1299   1.390       .  A
C1299      C1300   1.390       .  A
C1299      H1303   1.072       .  S
C1300      C1301   1.411       .  A
C1301      H1304   1.080       .  S
Zn1305     O1309   1.968       .  S
Zn1305     O1310   2.043       .  S
Zn1305     O1314   2.008       .  S
Zn1305     O1321   2.001       .  S
Zn1306     O1309   1.900       .  S
Zn1306     O1311   1.960       .  S
Zn1306     O1313   1.950       .  S
Zn1306     O1317   1.959       .  S
Zn1307     O1309   1.966       .  S
Zn1307     O1312   2.007       .  S
Zn1307     O1315   2.062       .  S
Zn1307     O1318   2.015       .  S
Zn1308     O1309   1.965       .  S
Zn1308     O1316   2.007       .  S
Zn1308     O1319   2.045       .  S
Zn1308     O1320   2.009       .  S
O1310      C1322   1.273       .  A
O1311      C1323   1.266       .  A
O1312      C1324   1.274       .  A
O1313      C1322   1.265       .  A
O1314      C1324   1.274       .  A
O1315      C1323   1.276       .  A
O1316      C1325   1.273       .  A
O1317      C1326   1.266       .  A
O1318      C1325   1.274       .  A
O1319      C1326   1.274       .  A
O1320      C1327   1.272       .  A
O1321      C1327   1.271       .  A
C1322      C1576   1.457       .  S
C1323      C1558   1.463       .  S
C1324      C1486   1.470       .  S
C1325      C1504   1.471       .  S
C1326      C1543   1.457       .  S
C1327      C1522   1.468       .  S
Zn1328     O1332   1.962       .  S
Zn1328     O1333   2.011       .  S
Zn1328     O1337   2.053       .  S
Zn1328     O1344   2.009       .  S
Zn1329     O1332   1.965       .  S
Zn1329     O1334   2.074   1_565  S
Zn1329     O1336   2.019   1_565  S
Zn1329     O1340   2.014       .  S
Zn1330     O1332   1.889       .  S
Zn1330     O1335   1.944   1_556  S
Zn1330     O1338   1.950   1_556  S
Zn1330     O1341   1.948   1_556  S
Zn1331     O1332   1.968       .  S
Zn1331     O1339   2.065       .  S
Zn1331     O1342   2.016       .  S
Zn1331     O1343   2.019       .  S
O1333      C1345   1.274       .  A
O1334      C1346   1.277   1_545  A
O1335      C1347   1.264   1_554  A
O1336      C1345   1.276   1_545  A
O1337      C1347   1.275       .  A
O1338      C1346   1.264   1_554  A
O1339      C1348   1.276       .  A
O1340      C1349   1.274       .  A
O1341      C1348   1.264   1_554  A
O1342      C1349   1.275       .  A
O1343      C1350   1.274       .  A
O1344      C1350   1.273       .  A
C1345      C1468   1.472   1_565  S
C1346      C1633   1.465   1_666  S
C1347      C1594   1.458   1_556  S
C1348      C1615   1.461   1_556  S
C1349      C1450   1.473       .  S
C1350      C1435   1.472       .  S
C1351      C1352   1.413       .  A
C1351      C1356   1.415       .  A
C1351      C1507   1.484       .  S
C1352      C1353   1.404       .  A
C1352      H1357   1.082       .  S
C1353      C1354   1.391       .  A
C1353      C1386   1.497       .  S
C1354      C1355   1.390       .  A
C1354      H1358   1.072       .  S
C1355      C1356   1.409       .  A
C1355      C1374   1.502       .  S
C1356      H1359   1.080       .  S
C1360      C1361   1.415       .  A
C1360      C1365   1.416       .  A
C1360      C1471   1.486       .  S
C1361      C1362   1.405       .  A
C1361      H1366   1.081       .  S
C1362      C1363   1.397       .  A
C1362      C1383   1.504       .  S
C1363      C1364   1.397       .  A
C1363      H1367   1.074       .  S
C1364      C1365   1.404       .  A
C1364      C1377   1.506       .  S
C1365      H1368   1.081       .  S
C1369      H1370   1.109       .  S
C1369      C1375   1.535       .  S
C1369      C1374   1.535       .  S
C1371      H1372   1.111       .  S
C1371      C1377   1.543       .  S
C1371      C1378   1.540       .  S
C1373      C1391   1.495       .  S
C1373      C1376   1.391       .  D
C1374      C1377   1.396       .  D
C1375      C1402   1.498       .  S
C1375      C1378   1.393       .  D
C1376      C1420   1.500       .  S
C1378      C1409   1.505       .  S
C1379      H1380   1.111       .  S
C1379      C1385   1.545       .  S
C1379      C1384   1.541       .  S
C1381      H1382   1.109       .  S
C1381      C1387   1.533       .  S
C1381      C1388   1.536       .  S
C1383      C1386   1.394       .  D
C1384      C1418   1.501       .  S
C1384      C1387   1.393       .  D
C1385      C1411   1.507       .  S
C1385      C1388   1.397       .  D
C1387      C1393   1.498       .  S
C1388      C1400   1.505       .  S
C1389      C1390   1.413       .  A
C1389      C1394   1.411       .  A
C1389      C1525   1.483       .  S
C1390      C1391   1.402       .  A
C1390      H1395   1.081       .  S
C1391      C1392   1.396       .  A
C1392      C1393   1.396       .  A
C1392      H1396   1.075       .  S
C1393      C1394   1.405       .  A
C1394      H1397   1.082       .  S
C1398      C1399   1.417       .  A
C1398      C1403   1.412       .  A
C1398      C1489   1.486       .  S
C1399      C1400   1.409       .  A
C1399      H1404   1.081       .  S
C1400      C1401   1.392       .  A
C1401      C1402   1.392       .  A
C1401      H1405   1.072       .  S
C1402      C1403   1.404       .  A
C1403      H1406   1.080       .  S
C1407      C1408   1.415       .  A
C1407      C1412   1.416       .  A
C1407      C1432   1.488       .  S
C1408      C1409   1.406       .  A
C1408      H1413   1.081       .  S
C1409      C1410   1.397       .  A
C1410      C1411   1.397       .  A
C1410      H1414   1.074       .  S
C1411      C1412   1.404       .  A
C1412      H1415   1.081       .  S
C1416      C1417   1.416       .  A
C1416      C1421   1.414       .  A
C1416      C1453   1.489       .  S
C1417      C1418   1.408       .  A
C1417      H1422   1.082       .  S
C1418      C1419   1.395       .  A
C1419      C1420   1.395       .  A
C1419      H1423   1.074       .  S
C1420      C1421   1.404       .  A
C1421      H1424   1.081       .  S
C1425      C1430   1.381       .  A
C1425      C1426   1.405       .  A
C1425      N1431   1.345       .  A
C1426      C1427   1.405       .  A
C1426      H1437   1.082       .  S
C1427      C1436   1.379       .  A
C1427      C1428   1.384       .  A
C1428      C1429   1.402       .  A
C1428      N1434   1.342       .  A
C1429      C1430   1.400       .  A
C1429      H1438   1.083       .  S
C1430      C1433   1.373       .  A
N1431      C1432   1.361       .  A
N1431      H1441   1.044       .  S
C1432      C1433   1.400       .  A
C1433      H1439   1.081       .  S
N1434      C1435   1.356       .  A
N1434      H1442   1.045       .  S
C1435      C1436   1.399       .  A
C1436      H1440   1.083       .  S
C1443      N1449   1.344       .  A
C1444      C1445   1.403       .  A
C1445      C1454   1.375       .  A
C1445      C1446   1.381       .  A
C1446      C1447   1.404       .  A
C1446      N1452   1.344       .  A
C1447      C1448   1.404       .  A
C1447      H1456   1.082       .  S
N1449      C1450   1.357   1_455  A
N1449      H1459   1.045       .  S
C1450      C1451   1.397       .  A
C1451      H1457   1.083       .  S
N1452      C1453   1.360       .  A
N1452      H1460   1.044       .  S
C1453      C1454   1.402       .  A
C1454      H1458   1.081       .  S
C1461      C1462   1.403       .  A
C1461      N1467   1.342       .  A
C1462      H1473   1.083   1_545  S
C1463      C1472   1.373       .  A
C1463      C1464   1.381       .  A
C1464      C1465   1.403       .  A
C1464      N1470   1.343       .  A
C1465      C1466   1.404       .  A
C1465      H1474   1.083       .  S
N1467      C1468   1.357       .  A
N1467      H1477   1.045   1_545  S
C1468      C1469   1.397       .  A
N1470      C1471   1.360       .  A
N1470      H1478   1.044       .  S
C1471      C1472   1.400       .  A
C1472      H1476   1.081       .  S
C1479      C1484   1.385       .  A
C1479      C1480   1.404       .  A
C1479      N1485   1.342       .  A
C1480      C1481   1.401       .  A
C1480      H1491   1.083       .  S
C1481      C1490   1.377       .  A
C1481      C1482   1.381       .  A
C1482      C1483   1.402       .  A
C1482      N1488   1.341       .  A
C1483      C1484   1.402       .  A
C1483      H1492   1.083       .  S
C1484      C1487   1.376       .  A
N1485      C1486   1.357       .  A
N1485      H1495   1.045       .  S
C1486      C1487   1.397       .  A
C1487      H1493   1.083       .  S
N1488      C1489   1.360       .  A
N1488      H1496   1.044       .  S
C1489      C1490   1.400       .  A
C1490      H1494   1.082       .  S
C1497      C1498   1.404       .  A
C1498      C1499   1.401       .  A
C1498      H1509   1.083       .  S
C1499      C1508   1.374       .  A
C1499      C1500   1.381       .  A
C1500      N1506   1.343       .  A
C1501      C1502   1.403       .  A
C1501      H1510   1.083       .  S
C1502      C1505   1.378       .  A
N1503      C1504   1.357       .  A
C1504      C1505   1.397       .  A
C1505      H1511   1.083       .  S
N1506      C1507   1.359       .  A
N1506      H1514   1.044       .  S
C1507      C1508   1.401       .  A
C1508      H1512   1.082       .  S
C1515      C1516   1.402       .  A
C1516      C1517   1.400       .  A
C1516      H1527   1.083       .  S
C1517      C1526   1.375       .  A
C1517      C1518   1.381       .  A
C1518      N1524   1.341       .  A
C1519      C1520   1.402       .  A
C1519      H1528   1.083       .  S
C1520      C1523   1.377       .  A
N1521      C1522   1.356   1_455  A
C1522      C1523   1.397       .  A
C1523      H1529   1.083       .  S
N1524      C1525   1.360       .  A
N1524      H1532   1.044       .  S
C1525      C1526   1.399       .  A
C1526      H1530   1.081       .  S
C1533      C1538   1.381       .  A
C1533      N1539   1.343       .  A
C1534      C1535   1.404       .  A
C1534      H1545   1.083       .  S
C1537      C1538   1.401       .  A
C1537      H1546   1.083       .  S
C1538      C1541   1.378       .  A
N1539      C1540   1.360       .  A
N1539      H1549   1.044       .  S
C1540      C1541   1.399       .  A
C1541      H1547   1.082       .  S
N1542      C1543   1.355   1_455  A
C1543      C1544   1.395   1_565  A
C1544      H1548   1.083       .  S
C1551      C1556   1.384       .  A
C1551      C1552   1.405       .  A
C1551      N1557   1.344       .  A
C1552      C1553   1.402       .  A
C1552      H1563   1.082       .  S
C1553      C1562   1.377       .  A
C1553      C1554   1.380       .  A
C1554      C1555   1.402       .  A
C1554      N1560   1.341       .  A
C1555      C1556   1.402       .  A
C1555      H1564   1.082       .  S
C1556      C1559   1.375       .  A
N1557      C1558   1.356       .  A
N1557      H1567   1.045       .  S
C1558      C1559   1.398       .  A
C1559      H1565   1.083       .  S
N1560      C1561   1.361       .  A
N1560      H1568   1.044       .  S
C1561      C1562   1.399       .  A
C1562      H1566   1.082       .  S
C1569      C1574   1.385       .  A
C1569      C1570   1.400       .  A
C1569      N1575   1.340       .  A
C1570      C1571   1.397       .  A
C1570      H1581   1.083       .  S
C1571      C1580   1.370       .  A
C1571      C1572   1.380       .  A
C1572      C1573   1.403       .  A
C1572      N1578   1.344       .  A
C1573      C1574   1.405       .  A
C1573      H1582   1.083       .  S
C1574      C1577   1.377       .  A
N1575      C1576   1.354       .  A
N1575      H1585   1.045       .  S
C1576      C1577   1.398       .  A
C1577      H1583   1.083       .  S
N1578      C1579   1.360       .  A
N1578      H1586   1.044       .  S
C1579      C1580   1.399       .  A
C1580      H1584   1.082       .  S
C1587      C1592   1.383       .  A
C1587      C1588   1.402       .  A
C1587      N1593   1.340       .  A
C1588      C1589   1.399       .  A
C1588      H1599   1.083       .  S
C1589      C1598   1.372       .  A
C1589      C1590   1.380       .  A
C1590      C1591   1.404       .  A
C1590      N1596   1.344       .  A
C1591      C1592   1.405       .  A
C1591      H1600   1.082       .  S
C1592      C1595   1.379       .  A
N1593      C1594   1.356       .  A
N1593      H1603   1.045       .  S
C1594      C1595   1.397       .  A
C1595      H1601   1.083       .  S
N1596      C1597   1.360       .  A
N1596      H1604   1.044       .  S
C1597      C1598   1.401       .  A
C1598      H1602   1.081       .  S
C1605      C1610   1.381       .  A
C1605      C1606   1.405       .  A
C1605      N1611   1.342       .  A
C1606      C1607   1.404       .  A
C1606      H1617   1.083       .  S
C1607      C1616   1.382       .  A
C1607      C1608   1.383       .  A
C1608      C1609   1.402       .  A
C1608      N1614   1.339       .  A
C1609      C1610   1.398       .  A
C1609      H1618   1.083       .  S
C1610      C1613   1.374       .  A
N1611      C1612   1.359       .  A
N1611      H1621   1.044       .  S
C1612      C1613   1.399       .  A
C1613      H1619   1.082       .  S
N1614      C1615   1.355       .  A
N1614      H1622   1.045       .  S
C1615      C1616   1.398       .  A
C1616      H1620   1.083       .  S
C1623      C1628   1.381       .  A
C1623      C1624   1.403       .  A
C1623      N1629   1.341       .  A
C1624      H1635   1.083       .  S
C1626      C1627   1.407       .  A
C1627      H1636   1.083   1_545  S
C1628      C1631   1.375       .  A
N1629      C1630   1.360       .  A
N1629      H1639   1.044       .  S
C1630      C1631   1.399       .  A
C1631      H1637   1.082       .  S
N1632      C1633   1.358       .  A
N1632      H1640   1.045   1_545  S
C1633      C1634   1.398       .  A
