geometry optimzed in LAMMPS
_audit_creation_date              2020-11-30 
_audit_creation_method            'lammps2cif' 
_symmetry_space_group_name_H-M    'P1' 
_symmetry_Int_Tables_number       1 
_symmetry_cell_setting            triclinic 
loop_ 
_symmetry_equiv_pos_as_xyz 
  x,y,z 
_cell_length_a                    43.55000021 
_cell_length_b                    43.57408535100272 
_cell_length_c                    31.746843654101458 
_cell_angle_alpha                 71.64912110159474 
_cell_angle_beta                  73.00540242914056 
_cell_angle_gamma                 84.66456374855161 
loop_ 
_atom_site_label 
_atom_site_type_symbol 
_atom_site_fract_x 
_atom_site_fract_y 
_atom_site_fract_z 
_atom_site_charge 
N1          N  0.16094112  0.97872945  0.23578759    -0.03200
C2          C  0.15664471  0.97700583  0.19602403    -0.00600
C3          C  0.18393776  0.47635297  0.16234196    -0.23500
C4          C  0.20756659  0.48184757  0.17970471    -0.23700
C5          C  0.19275224  0.48068949  0.22494812    -0.00700
H6          H  0.18688035  0.47575232  0.12755738     0.13100
H7          H  0.23281323  0.48572607  0.16166435     0.13200
N8          N  0.29375299  0.49303777  0.34005808    -0.03200
C9          C  0.29772823  0.49269751  0.38096923    -0.00600
C10         C  0.26857030  0.48941222  0.41441690    -0.23500
C11         C  0.24569284  0.48682274  0.39384393    -0.23700
C12         C  0.26181476  0.48907473  0.34859898    -0.00700
H13         H  0.26449494  0.48875334  0.44999034     0.13100
H14         H  0.22012169  0.48374470  0.40994567     0.13200
N15         N  0.48436544  0.17876612  0.22164174    -0.03200
C16         C  0.48277780  0.17532338  0.18130603    -0.00600
C17         C  0.47825760  0.20496405  0.15106639    -0.23500
C18         C  0.47613036  0.22748966  0.17381700    -0.23700
C19         C  0.47993619  0.21082514  0.21680478    -0.00700
H20         H  0.47634052  0.20957873  0.11637813     0.13100
H21         H  0.47208397  0.25318356  0.16062112     0.13200
N22         N  0.46859773  0.30569715  0.34940109    -0.03200
C23         C  0.46627765  0.30879110  0.39125534    -0.00600
C24         C  0.46709120  0.27866158  0.42288980    -0.23500
C25         C  0.46913623  0.25623920  0.39981897    -0.23700
C26         C  0.46967929  0.27353480  0.35498633    -0.00700
H27         H  0.46662688  0.27354876  0.45870332     0.13100
H28         H  0.47015752  0.23022844  0.41409081     0.13200
O29         O  0.06142634  0.47132389  0.08876345    -0.75000
O30         O  0.01955954  0.47573958  0.14982138    -0.53900
C31         C  0.04934463  0.47207761  0.13066107     0.78800
O32         O  0.48778322  0.08579779  0.42349852    -0.59600
O33         O  0.49084836  0.04793239  0.38653978    -0.52600
C34         C  0.48872082  0.07732462  0.38782224     0.70800
O35         O  0.49472852  0.08107778  0.06230404    -0.74100
O36         O  0.48191773  0.04128733  0.13140584    -0.54700
C37         C  0.48967377  0.07053165  0.10634460     0.76800
O38         O  0.07266939  0.47846565  0.43839479    -0.59300
O39         O  0.03507276  0.48325157  0.39935176    -0.52400
C40         C  0.06421558  0.48063302  0.40190607     0.73400
Zr41       Zr  0.04506668  0.47624743  0.01963293     2.54700
O42         O  0.09386351  0.00703825  0.99475223    -0.79800
O43         O  0.07852463  0.42796607  0.02526838    -0.93300
Zr44       Zr  0.49235362  0.06110432  0.00016329     2.64700
O45         O  0.04220235  0.07945736  0.97126550    -0.98200
O46         O  0.46243985  0.11147121  0.99599167    -0.80300
O47         O  0.01523426  0.01306132  0.05526738    -0.83600
O48         O  0.01982251  0.01674566  0.47108608    -2.18300
O49         O  0.46910899  0.40483750  0.49987385    -0.67000
O50         O  0.47769623  0.44595067  0.43195302    -0.51600
C51         C  0.47227350  0.41613038  0.45614003     0.71700
O52         O  0.38427165  0.49362664  0.13759824    -0.59900
O53         O  0.42166839  0.49076513  0.17623419    -0.51900
C54         C  0.39255080  0.49232213  0.17389121     0.73500
O55         O  0.39211766  0.50293743  0.48938562    -0.71300
O56         O  0.43336818  0.49872875  0.42740161    -0.50000
C57         C  0.40354427  0.50190721  0.44758255     0.74900
O58         O  0.46824953  0.39608222  0.14675548    -0.66700
O59         O  0.46652120  0.43472832  0.18217806    -0.53900
C60         C  0.46657037  0.40523170  0.18217936     0.73300
Zr61       Zr  0.47067269  0.42172098  0.06546927     2.77500
O62         O  0.42525738  0.38469482  0.09718588    -0.97400
O63         O  0.00373337  0.37041193  0.06844301    -0.78200
Zr64       Zr  0.41091335  0.49689158  0.05702541     2.70100
O65         O  0.36347483  0.46345147  0.08049491    -0.79500
O66         O  0.38552861  0.05936088  0.04158867    -0.98600
Zr67       Zr  0.47301976  0.48614941  0.12193687     2.21500
Zr68       Zr  0.48149582  0.49447283  0.45235420     2.11100
O69         O  0.44236932  0.46052329  0.01975856    -2.47200
O70         O  0.43762584  0.45683378  0.10411816    -0.79300
O71         O  0.01131585  0.44732287  0.49990762    -0.71500
O72         O  0.45033612  0.03443494  0.06524025    -2.32400
O73         O  0.00549315  0.44542705  0.08467033    -2.28600
O74         O  0.45574963  0.03416162  0.48184871    -0.73200
H75         H  0.03497388  0.02892819  0.44317033     0.78800
H76         H  0.43895766  0.04940041  0.08130985     0.79900
H77         H  0.42849389  0.44955884  0.01035849     0.82100
H78         H  0.01610454  0.43001185  0.10522631     0.79700
H79         H  0.44158937  0.10680053  0.99273201     0.42700
H80         H  0.39424343  0.07272148  0.00912625     0.41700
H81         H  0.36879800  0.44280485  0.10145246     0.41400
H82         H  0.41102413  0.39189251  0.12294865     0.39300
H83         H  0.99212197  0.35336219  0.09617080     0.42400
H84         H  0.07134129  0.41490756  0.05816478     0.37200
H85         H  0.09056825  0.02622152  0.96963793     0.43300
H86         H  0.03511430  0.10380769  0.46793698     0.39800
H87         H  0.41346888  0.39060113  0.07338548     0.44700
H88         H  0.10017121  0.43569723  0.02126256     0.43400
H89         H  0.05301997  0.07279864  0.99619420     0.43500
H90         H  0.36322444  0.05448146  0.04394323     0.43900
C91         C  0.44199677  0.37199395  0.45349135    -0.20000
C92         C  0.46869968  0.39258191  0.43305132    -0.06600
C93         C  0.99403798  0.37883678  0.39893616     0.14300
C94         C  0.49026035  0.36155173  0.37911929    -0.20000
C95         C  0.46471302  0.33962453  0.40200248    -0.06600
C96         C  0.43945240  0.34588254  0.43791571     0.14300
C97         C  0.40955560  0.32538144  0.45936375    -0.22100
H98         H  0.42333210  0.37600762  0.48247892     0.15600
H99         H  0.01000366  0.34702833  0.35654433     0.15600
C100        C  0.02495080  0.39741991  0.37928190    -0.23300
H101        H  0.39143815  0.33494885  0.48494611     0.05800
H102        H  0.41529440  0.30029356  0.47755497     0.09100
H103        H  0.39858021  0.32513878  0.43198646     0.09100
H104        H  0.03632053  0.39443779  0.40739985     0.09000
H105        H  0.02018612  0.42341542  0.36389304     0.09000
H106        H  0.04209174  0.38869019  0.35188968     0.05800
C107        C  0.44098432  0.35023843  0.30560634    -0.20000
C108        C  0.46873865  0.33142816  0.30776571    -0.06600
C109        C  0.49605159  0.33786913  0.26903815     0.14300
C110        C  0.49424684  0.36154322  0.22809100    -0.20000
C111        C  0.46629171  0.37986274  0.22564149    -0.06600
C112        C  0.43940545  0.37441417  0.26483437     0.14300
C113        C  0.40877687  0.39318392  0.26302899    -0.23400
H114        H  0.42031830  0.34539686  0.33572451     0.15600
H115        H  0.51514248  0.36641082  0.19822399     0.15600
C116        C  0.52779385  0.32133510  0.27047504    -0.23300
H117        H  0.38987327  0.38548775  0.29647809     0.05800
H118        H  0.39970398  0.38907257  0.23602302     0.09100
H119        H  0.41321337  0.41938775  0.25472534     0.09100
H120        H  0.53452314  0.30739153  0.24524332     0.09000
H121        H  0.02484084  0.29683369  0.30455473     0.09000
H122        H  0.54656238  0.33980499  0.26106821     0.05800
C123        C  0.00843875  0.09595093  0.31075181    -0.20000
C124        C  0.48715537  0.10346604  0.34538482    -0.06600
C125        C  0.46361334  0.12812967  0.34613166     0.14300
C126        C  0.46296482  0.15206461  0.30478045    -0.20000
C127        C  0.48647779  0.15348419  0.26312500    -0.06600
C128        C  0.00960061  0.12086611  0.26941629     0.14300
C129        C  0.03829425  0.12188003  0.22872141    -0.23400
H130        H  0.02695240  0.07748087  0.31126309     0.15600
H131        H  0.44393500  0.16990082  0.30489346     0.15600
C132        C  0.43899881  0.12939486  0.39025016    -0.23300
H133        H  0.06062369  0.12088781  0.23927426     0.05800
H134        H  0.03943607  0.14445644  0.19986548     0.09100
H135        H  0.03784732  0.10071101  0.21652237     0.09100
H136        H  0.45102491  0.13469556  0.41351598     0.09000
H137        H  0.42627245  0.10596781  0.40795435     0.09000
H138        H  0.42087282  0.14867250  0.38375373     0.05800
C139        C  0.01067577  0.13431459  0.13640462    -0.20000
C140        C  0.48656213  0.14510176  0.16867381    -0.06600
C141        C  0.46279924  0.12078403  0.18782804     0.14300
C142        C  0.46569511  0.09542803  0.16849484    -0.20000
C143        C  0.49113120  0.09448361  0.12972314    -0.06600
C144        C  0.01262899  0.10932068  0.11701063     0.14300
C145        C  0.04052388  0.10897057  0.07561078    -0.23400
H146        H  0.02869998  0.15322855  0.12089879     0.15600
H147        H  0.44697903  0.07727629  0.18200316     0.15600
C148        C  0.43332347  0.12251335  0.22629678    -0.23300
H149        H  0.05845985  0.12792405  0.06794866     0.05800
H150        H  0.03202183  0.11380879  0.04445708     0.09100
H151        H  0.05291155  0.08523865  0.08203011     0.09100
H152        H  0.42094794  0.14603381  0.21647123     0.09000
H153        H  0.44005619  0.11966935  0.25829809     0.09000
H154        H  0.41600227  0.10294870  0.23410427     0.05800
C155        C  0.50150897  0.24551138  0.29989768    -0.20000
C156        C  0.47191755  0.25847335  0.31867212    -0.06600
C157        C  0.44476151  0.25485526  0.30500669     0.14300
C158        C  0.44815234  0.23913811  0.27157752    -0.20000
C159        C  0.47784148  0.22640141  0.25254851    -0.06600
C160        C  0.00319019  0.22063302  0.27263712     0.14300
C161        C  0.03569560  0.20725221  0.25395604    -0.23400
H162        H  0.01930091  0.23882944  0.31821746     0.15600
H163        H  0.42747989  0.23629754  0.26066914     0.15600
C164        C  0.41208563  0.26641884  0.32678493    -0.23300
H165        H  0.05405439  0.21335974  0.26804230     0.05800
H166        H  0.04365428  0.21749674  0.21575059     0.09100
H167        H  0.03464444  0.18059366  0.26349268     0.09100
H168        H  0.41229802  0.29296215  0.31958720     0.09000
H169        H  0.40534478  0.25463058  0.36472716     0.09000
H170        H  0.39335012  0.26057849  0.31311282     0.05800
C171        C  0.33108754  0.52402147  0.40231775    -0.20000
C172        C  0.32812355  0.49654285  0.38995387    -0.06600
C173        C  0.35199664  0.47227117  0.39202618     0.14300
C174        C  0.37806272  0.47598008  0.40752859    -0.20000
C175        C  0.38002878  0.50275021  0.42222206    -0.06600
C176        C  0.35686467  0.52756294  0.41811934     0.14300
C177        C  0.35935585  0.55791734  0.42992372    -0.23400
H178        H  0.31259474  0.54248858  0.40062147     0.15600
H179        H  0.39575381  0.45679949  0.41118030     0.15600
C180        C  0.34963032  0.44129681  0.38153127    -0.23300
H181        H  0.33981164  0.57530476  0.42281823     0.05800
H182        H  0.39188744  0.07799058  0.39044971     0.09100
H183        H  0.37219052  0.55985018  0.95191795     0.09100
H184        H  0.37058315  0.43921706  0.35256932     0.09000
H185        H  0.32747160  0.43971772  0.37195483     0.09000
H186        H  0.34969467  0.42039592  0.41250340     0.05800
C187        C  0.36601983  0.51730416  0.23585962    -0.20000
C188        C  0.36664341  0.49259873  0.21601417    -0.06600
C189        C  0.34234119  0.46882633  0.23637249     0.14300
C190        C  0.31925427  0.46915584  0.27768218    -0.20000
C191        C  0.31830011  0.49397628  0.29751224    -0.06600
C192        C  0.34126016  0.51916871  0.27498516     0.14300
C193        C  0.34196577  0.05792554  0.28011539    -0.23400
H194        H  0.38662425  0.04497198  0.20996659     0.15600
H195        H  0.30169463  0.44993274  0.29463967     0.15600
C196        C  0.34078677  0.44295634  0.21483572    -0.23300
H197        H  0.34129628  0.07945786  0.25019515     0.05800
H198        H  0.36341059  0.05967145  0.29140909     0.09100
H199        H  0.31988873  0.05871367  0.30803886     0.09100
H200        H  0.36381211  0.42956982  0.21010442     0.09000
H201        H  0.33610283  0.45418012  0.18072056     0.09000
H202        H  0.32122482  0.42536691  0.23651888     0.05800
C203        C  0.13493866  0.50290896  0.29381044    -0.20000
C204        C  0.13732588  0.47530482  0.27909366    -0.06600
C205        C  0.11493888  0.95245479  0.30306813     0.14300
C206        C  0.09087573  0.95433486  0.34271436    -0.20000
C207        C  0.08985222  0.47950512  0.35992369    -0.06600
C208        C  0.11162846  0.50520870  0.33411331     0.14300
C209        C  0.10993515  0.53518862  0.34864483    -0.23400
H210        H  0.15113899  0.52293721  0.27317522     0.15600
H211        H  0.07466480  0.93420547  0.36210886     0.15600
C212        C  0.11743088  0.92160467  0.29048836    -0.23300
H213        H  0.12841214  0.55318057  0.32417942     0.05800
H214        H  0.11027771  0.03073891  0.38423211     0.09100
H215        H  0.08593112  0.54662906  0.35002707     0.09100
H216        H  0.11863248  0.90069163  0.32092043     0.09000
H217        H  0.13931290  0.41642566  0.26627757     0.09000
H218        H  0.09593269  0.91892702  0.27986505     0.05800
C219        C  0.10011930  0.48945202  0.19846586    -0.20000
C220        C  0.12459977  0.46668857  0.19222255    -0.06600
C221        C  0.12233793  0.94704120  0.17090259     0.14300
C222        C  0.09584119  0.94733804  0.15456198    -0.20000
C223        C  0.07191685  0.46820229  0.15824491    -0.06600
C224        C  0.07335414  0.49025884  0.18212599     0.14300
C225        C  0.04801945  0.51580931  0.18783550    -0.23400
H226        H  0.10294963  0.50789890  0.21332144     0.15600
H227        H  0.09382110  0.92887130  0.13922116     0.15600
C228        C  0.14614778  0.91977542  0.16821248    -0.23300
H229        H  0.05380904  0.53180872  0.20566320     0.05800
H230        H  0.02454365  0.50416898  0.20882693     0.09100
H231        H  0.04592471  0.53105382  0.15351844     0.09100
H232        H  0.16335906  0.41438104  0.18788790     0.09000
H233        H  0.15694461  0.92069166  0.13153481     0.09000
H234        H  0.13354826  0.89631647  0.18731342     0.05800
C235        C  0.22218763  0.01685374  0.25197278    -0.20000
C236        C  0.21020353  0.48253373  0.25697866    -0.06600
C237        C  0.21663441  0.45446764  0.29024355     0.14300
C238        C  0.23411371  0.45727462  0.31935841    -0.20000
C239        C  0.24567638  0.48733704  0.31498983    -0.06600
C240        C  0.24100402  0.02030015  0.27919887     0.14300
C241        C  0.25300618  0.05329276  0.27249701    -0.23400
H242        H  0.21744517  0.03766798  0.22506268     0.15600
H243        H  0.23884420  0.43599815  0.34563737     0.15600
C244        C  0.20562745  0.42159635  0.29450593    -0.23300
H245        H  0.24450599  0.07227405  0.24559564     0.05800
H246        H  0.27958752  0.05359849  0.26150194     0.09100
H247        H  0.24422714  0.05949270  0.30536407     0.09100
H248        H  0.21485121  0.41656490  0.26082267     0.09000
H249        H  0.17910890  0.42073942  0.30532690     0.09000
H250        H  0.21429279  0.40213487  0.32070805     0.05800
N251        N  0.16215735  0.96839940  0.74003010    -0.03200
C252        C  0.15707989  0.96267245  0.70308502    -0.00600
C253        C  0.18696138  0.48476726  0.66008767    -0.23500
C254        C  0.20970649  0.49088789  0.67846768    -0.23700
C255        C  0.19384685  0.49024467  0.72319130    -0.00700
H256        H  0.19092863  0.48358026  0.62535328     0.13100
H257        H  0.23509839  0.49479563  0.66146941     0.13200
N258        N  0.29503374  0.50282950  0.83682669    -0.03200
C259        C  0.29936140  0.50390230  0.87683917    -0.00600
C260        C  0.27031074  0.50466988  0.90913452    -0.23500
C261        C  0.24694973  0.50325639  0.88875174    -0.23700
C262        C  0.26282001  0.50197086  0.84485906    -0.00700
H263        H  0.26661291  0.50562304  0.94392569     0.13100
H264        H  0.22125188  0.50297381  0.90421323     0.13200
N265        N  0.49244559  0.17862906  0.71724154    -0.03200
C266        C  0.49067574  0.17461041  0.67739860    -0.00600
C267        C  0.48708475  0.20405777  0.64613460    -0.23500
C268        C  0.48558851  0.22707480  0.66794083    -0.23700
C269        C  0.48886086  0.21085610  0.71140830    -0.00700
H270        H  0.48487230  0.20818718  0.61170240     0.13100
H271        H  0.48175872  0.25274614  0.65407885     0.13200
N272        N  0.46940743  0.30635529  0.84665228    -0.03200
C273        C  0.46418824  0.30840321  0.88988186    -0.00600
C274        C  0.46439836  0.27784903  0.92079339    -0.23500
C275        C  0.46907377  0.25624674  0.89588062    -0.23700
C276        C  0.47182559  0.27437127  0.85066625    -0.00700
H277        H  0.46232821  0.27189897  0.95726348     0.13100
H278        H  0.47036124  0.23018816  0.90921488     0.13200
O279        O  0.06381278  0.47369246  0.58561066    -0.75000
O280        O  0.02208737  0.47743426  0.64723627    -0.53900
C281        C  0.05202734  0.47476400  0.62737374     0.78800
O282        O  0.49208670  0.08643936  0.92024834    -0.59600
O283        O  0.49158102  0.04840108  0.88479833    -0.52600
C284        C  0.49220547  0.07780425  0.88503799     0.70800
O285        O  0.49428068  0.07901148  0.56517880    -0.74100
O286        O  0.48305533  0.03878079  0.63397550    -0.54700
C287        C  0.49021626  0.06812589  0.60905602     0.76800
O288        O  0.07224805  0.47931464  0.93876936    -0.59300
O289        O  0.03491335  0.48502187  0.89905768    -0.52400
C290        C  0.06403245  0.48235193  0.90175891     0.73400
Zr291      Zr  0.04588299  0.47674493  0.51858340     2.54700
O292        O  0.09269897  0.01152593  0.49305088    -0.79800
O293        O  0.07968060  0.42866104  0.52617164    -0.93300
Zr294      Zr  0.49245962  0.06027978  0.50148428     2.64700
O295        O  0.04046637  0.08053838  0.47379341    -0.98200
O296        O  0.46557663  0.11226648  0.49747906    -0.80300
O297        O  0.01599455  0.01360183  0.55645071    -0.83600
O298        O  0.02119145  0.01612517  0.96938544    -2.18300
O299        O  0.46784536  0.40239708  0.00240521    -0.67000
O300        O  0.47717967  0.44351340  0.93448256    -0.51600
C301        C  0.47114931  0.41378023  0.95865058     0.71700
O302        O  0.38441953  0.49661542  0.63662979    -0.59900
O303        O  0.42229507  0.49347716  0.67461755    -0.51900
C304        C  0.39303428  0.49549330  0.67261676     0.73500
O305        O  0.39362151  0.50243029  0.98864223    -0.71300
O306        O  0.43506554  0.49670642  0.92778276    -0.50000
C307        C  0.40541634  0.50101922  0.94708229     0.74900
O308        O  0.46946581  0.39829208  0.64449131    -0.66700
O309        O  0.46640197  0.43673133  0.68067220    -0.53900
C310        C  0.46710848  0.40724574  0.68029538     0.73300
Zr311      Zr  0.47109837  0.42403770  0.56336282     2.77500
O312        O  0.42486658  0.38805023  0.59368927    -0.97400
O313        O  0.01058072  0.37303043  0.56653085    -0.78200
Zr314      Zr  0.41076904  0.49834324  0.55639093     2.70100
O315        O  0.36609253  0.46081999  0.58348131    -0.79500
O316        O  0.38520659  0.05521330  0.53922939    -0.98600
Zr317      Zr  0.47363032  0.48822184  0.62017446     2.21500
Zr318      Zr  0.48207925  0.49189250  0.95451232     2.11100
O319        O  0.44243511  0.46263454  0.51802294    -2.47200
O320        O  0.43817645  0.45871280  0.60283554    -0.79300
O321        O  0.00995532  0.44772932  0.00054753    -0.71500
O322        O  0.45081819  0.03221955  0.56592868    -2.32400
O323        O  0.00716016  0.44545219  0.58423888    -2.28600
O324        O  0.45451332  0.03612361  0.98104981    -0.73200
H325        H  0.03704162  0.02778109  0.94187271     0.78800
H326        H  0.43894015  0.04694827  0.58206182     0.79900
H327        H  0.42863751  0.45147177  0.50877550     0.82100
H328        H  0.01824342  0.43042339  0.60450521     0.79700
H329        H  0.48301676  0.12792845  0.48939006     0.42700
H330        H  0.39536073  0.06909328  0.50753500     0.41700
H331        H  0.34699883  0.47337017  0.59457874     0.41400
H332        H  0.42043590  0.38142253  0.62771599     0.39300
H333        H  0.99772510  0.35326888  0.58517948     0.42400
H334        H  0.10057221  0.43603502  0.50326461     0.37200
H335        H  0.08797944  0.03058434  0.46888640     0.43300
H336        H  0.03729030  0.10267138  0.96728108     0.39800
H337        H  0.40668374  0.40239232  0.58734812     0.44700
H338        H  0.07066219  0.41474663  0.51335085     0.43400
H339        H  0.05088472  0.07531623  0.49906523     0.43500
H340        H  0.36388338  0.04973985  0.53835421     0.43900
C341        C  0.44036062  0.37022248  0.95508815    -0.20000
C342        C  0.46730900  0.39052751  0.93525183    -0.06600
C343        C  0.99578492  0.38194822  0.89747124     0.14300
C344        C  0.48852659  0.36026155  0.88030320    -0.20000
C345        C  0.46266376  0.33865493  0.90223650    -0.06600
C346        C  0.43757382  0.34450715  0.93876415     0.14300
C347        C  0.40767906  0.32398722  0.96025351    -0.22100
H348        H  0.42175099  0.37407816  0.98424638     0.15600
H349        H  0.01417611  0.35005978  0.85582734     0.15600
C350        C  0.02599380  0.40174174  0.87834579    -0.23300
H351        H  0.38958717  0.33353682  0.98589188     0.05800
H352        H  0.41342916  0.29891840  0.97847660     0.09100
H353        H  0.39663772  0.32372009  0.93295922     0.09100
H354        H  0.03675613  0.39977396  0.90676986     0.09000
H355        H  0.02045107  0.42743789  0.86244844     0.09000
H356        H  0.04402170  0.39330720  0.85140938     0.05800
C357        C  0.44166160  0.35112967  0.80331870    -0.20000
C358        C  0.46967497  0.33271420  0.80547062    -0.06600
C359        C  0.49706551  0.33981932  0.76683489     0.14300
C360        C  0.49513591  0.36375955  0.72612009    -0.20000
C361        C  0.46693115  0.38164432  0.72366394    -0.06600
C362        C  0.43984943  0.37534467  0.76264591     0.14300
C363        C  0.40872573  0.39307930  0.76064386    -0.23400
H364        H  0.42083640  0.34566867  0.83320343     0.15600
H365        H  0.51611539  0.36912704  0.69638919     0.15600
C366        C  0.52901402  0.32374102  0.76810606    -0.23300
H367        H  0.38973304  0.38474203  0.79388991     0.05800
H368        H  0.40025971  0.38871428  0.73325596     0.09100
H369        H  0.41224948  0.41940625  0.75277808     0.09100
H370        H  0.53609483  0.31007400  0.74253207     0.09000
H371        H  0.03148455  0.29862830  0.80070465     0.09000
H372        H  0.54746852  0.34246670  0.75905913     0.05800
C373        C  0.00750571  0.09781749  0.80890432    -0.20000
C374        C  0.49227671  0.10387599  0.84212511    -0.06600
C375        C  0.46866291  0.12843885  0.84146749     0.14300
C376        C  0.46910445  0.15235783  0.79980313    -0.20000
C377        C  0.49353853  0.15353322  0.75921109    -0.06600
C378        C  0.00813378  0.12348022  0.76862326     0.14300
C379        C  0.03674351  0.12606803  0.72731868    -0.23400
H380        H  0.02618711  0.07954802  0.80814775     0.15600
H381        H  0.45017453  0.17029804  0.79875638     0.15600
C382        C  0.44282463  0.12950604  0.88452167    -0.23300
H383        H  0.05907389  0.12576569  0.73761581     0.05800
H384        H  0.03691359  0.14892214  0.69920135     0.09100
H385        H  0.03718717  0.10521835  0.71413377     0.09100
H386        H  0.45374167  0.13533658  0.90853538     0.09000
H387        H  0.43060781  0.10578484  0.90169594     0.09000
H388        H  0.42449157  0.14830340  0.87686766     0.05800
C389        C  0.00680859  0.13618325  0.63869725    -0.20000
C390        C  0.49213458  0.14368393  0.66717891    -0.06600
C391        C  0.46597545  0.12197771  0.68558686     0.14300
C392        C  0.46712237  0.09572874  0.66844167    -0.20000
C393        C  0.49308053  0.09178073  0.63204528    -0.06600
C394        C  0.01010652  0.11044079  0.62029324     0.14300
C395        C  0.03875197  0.10996833  0.57993623    -0.23400
H396        H  0.02417146  0.15570720  0.62278306     0.15600
H397        H  0.44672723  0.07955218  0.68122110     0.15600
C398        C  0.43590414  0.12772867  0.72044171    -0.23300
H399        H  0.05586678  0.12976782  0.57184777     0.05800
H400        H  0.03099923  0.11330905  0.54850292     0.09100
H401        H  0.05179031  0.08669075  0.58805626     0.09100
H402        H  0.42598022  0.15202124  0.70663733     0.09000
H403        H  0.44124631  0.12605920  0.75305488     0.09000
H404        H  0.41709635  0.10950796  0.72868351     0.05800
C405        C  0.50618046  0.24630419  0.79705347    -0.20000
C406        C  0.47627617  0.25997686  0.81301105    -0.06600
C407        C  0.45037789  0.25650379  0.79665674     0.14300
C408        C  0.45530627  0.24027132  0.76348850    -0.20000
C409        C  0.48525067  0.22677793  0.74730555    -0.06600
C410        C  0.00586819  0.22275269  0.76871854     0.14300
C411        C  0.03751812  0.21017052  0.74541867    -0.23400
H412        H  0.02627362  0.24060904  0.81071514     0.15600
H413        H  0.43556930  0.23760753  0.75055827     0.15600
C414        C  0.41729502  0.26869379  0.81541521    -0.23300
H415        H  0.05753623  0.21611121  0.75659904     0.05800
H416        H  0.04294931  0.22111336  0.70738543     0.09100
H417        H  0.03658141  0.18356412  0.75416550     0.09100
H418        H  0.41757954  0.29532566  0.80678836     0.09000
H419        H  0.40915326  0.25784864  0.85351765     0.09000
H420        H  0.39951785  0.26234156  0.80056714     0.05800
C421        C  0.33803172  0.53184406  0.89397501    -0.20000
C422        C  0.33022819  0.50398944  0.88634803    -0.06600
C423        C  0.34964004  0.47605641  0.89379094     0.14300
C424        C  0.37593102  0.47646058  0.91056056    -0.20000
C425        C  0.38258779  0.50388991  0.92038730    -0.06600
C426        C  0.36444478  0.53230245  0.91008819     0.14300
C427        C  0.37328063  0.56314893  0.91542273    -0.23400
H428        H  0.32294514  0.55313287  0.88817542     0.15600
H429        H  0.39006550  0.45466704  0.91869052     0.15600
C430        C  0.34215125  0.44493563  0.88757195    -0.23300
H431        H  0.35693066  0.58334714  0.90471684     0.05800
H432        H  0.38523148  0.08206065  0.90470640     0.09100
H433        H  0.35778284  0.55217040  0.46702975     0.09100
H434        H  0.36251004  0.43846363  0.86124375     0.09000
H435        H  0.32011582  0.44633527  0.87638774     0.09000
H436        H  0.33868201  0.42526662  0.92083190     0.05800
C437        C  0.36733918  0.52291743  0.73206079    -0.20000
C438        C  0.36741334  0.49707629  0.71458368    -0.06600
C439        C  0.34280390  0.47365108  0.73698355     0.14300
C440        C  0.31983605  0.47568779  0.77768164    -0.20000
C441        C  0.31940998  0.50175074  0.79495148    -0.06600
C442        C  0.34288040  0.52631105  0.77062594     0.14300
C443        C  0.34243880  0.06227549  0.77321071    -0.23400
H444        H  0.38726038  0.04713531  0.70499663     0.15600
H445        H  0.30204683  0.45682182  0.79616825     0.15600
C446        C  0.34082481  0.44636331  0.71828133    -0.23300
H447        H  0.34245933  0.08329985  0.74235907     0.05800
H448        H  0.36365816  0.06402398  0.78498883     0.09100
H449        H  0.32021311  0.06409517  0.80033644     0.09100
H450        H  0.36365119  0.43260542  0.71485020     0.09000
H451        H  0.33631785  0.45622573  0.68387474     0.09000
H452        H  0.32101048  0.42938330  0.74117364     0.05800
C453        C  0.13351111  0.50988537  0.79256390    -0.20000
C454        C  0.13802801  0.48269689  0.77652276    -0.06600
C455        C  0.11908765  0.94319600  0.81205192     0.14300
C456        C  0.09573887  0.94640895  0.85161923    -0.20000
C457        C  0.08996164  0.48300056  0.85905173    -0.06600
C458        C  0.10985616  0.51028725  0.83361958     0.14300
C459        C  0.10576960  0.53994493  0.84945436    -0.23400
H460        H  0.14834455  0.53103117  0.77245438     0.15600
H461        H  0.08164344  0.92560919  0.87515948     0.15600
C462        C  0.12319590  0.91044926  0.80450761    -0.23300
H463        H  0.12306645  0.55923739  0.82543957     0.05800
H464        H  0.11006198  0.03120094  0.87669012     0.09100
H465        H  0.08107898  0.54969723  0.85137720     0.09100
H466        H  0.12735612  0.89202055  0.83566041     0.09000
H467        H  0.14455944  0.42434239  0.76125680     0.09000
H468        H  0.10110946  0.90401494  0.79846942     0.05800
C469        C  0.10229638  0.49587143  0.69357366    -0.20000
C470        C  0.12770680  0.47399281  0.68761346    -0.06600
C471        C  0.12010411  0.93484386  0.67924024     0.14300
C472        C  0.09478521  0.93833533  0.65938552    -0.20000
C473        C  0.07523008  0.47274863  0.65374339    -0.06600
C474        C  0.07581203  0.49543686  0.67705610     0.14300
C475        C  0.04982875  0.52049314  0.68184430    -0.23400
H476        H  0.10411693  0.51459999  0.70851343     0.15600
H477        H  0.09140338  0.92032958  0.64407335     0.15600
C478        C  0.14080477  0.90501733  0.68048132    -0.23300
H479        H  0.05503890  0.53734428  0.69885010     0.05800
H480        H  0.02658320  0.50847795  0.70311695     0.09100
H481        H  0.04762454  0.53491865  0.64723127     0.09100
H482        H  0.16902396  0.42349293  0.68177782     0.09000
H483        H  0.15248541  0.90425783  0.64470927     0.09000
H484        H  0.12556944  0.88318512  0.69979590     0.05800
C485        C  0.22325332  0.01282760  0.74496962    -0.20000
C486        C  0.21041180  0.49297397  0.75574459    -0.06600
C487        C  0.21935355  0.46515666  0.78697804     0.14300
C488        C  0.23681391  0.46880587  0.81561387    -0.20000
C489        C  0.24622147  0.49948433  0.81229287    -0.06600
C490        C  0.24141627  0.02043291  0.77018302     0.14300
C491        C  0.25302980  0.05452167  0.75740240    -0.23400
H492        H  0.21840605  0.03127822  0.71552139     0.15600
H493        H  0.24332513  0.44771083  0.84053576     0.15600
C494        C  0.21111022  0.43172662  0.78941853    -0.23300
H495        H  0.24526483  0.07076189  0.72755826     0.05800
H496        H  0.27961832  0.05494955  0.74786540     0.09100
H497        H  0.24321790  0.06416394  0.78717367     0.09100
H498        H  0.22100115  0.42794547  0.75497843     0.09000
H499        H  0.18472017  0.42878799  0.80054332     0.09000
H500        H  0.22113508  0.41270784  0.81454397     0.05800
N501        N  0.16095224  0.47481091  0.23642041    -0.03200
C502        C  0.15574501  0.47195720  0.19786505    -0.00600
C503        C  0.18547212  0.98129279  0.16171008    -0.23500
C504        C  0.20847401  0.98565469  0.18100405    -0.23700
C505        C  0.19276480  0.98398980  0.22620511    -0.00700
H506        H  0.18926431  0.98131846  0.12645357     0.13100
H507        H  0.23388289  0.98947256  0.16408307     0.13200
N508        N  0.29777098  0.00070425  0.33261381    -0.03200
C509        C  0.30381617  0.99949889  0.37264568    -0.00600
C510        C  0.27603922  0.99385208  0.40879719    -0.23500
C511        C  0.25184563  0.99076397  0.39086075    -0.23700
C512        C  0.26578436  0.99506106  0.34438476    -0.00700
H513        H  0.27378770  0.99177970  0.44445176     0.13100
H514        H  0.22683397  0.98579051  0.40960118     0.13200
N515        N  0.47698719  0.67552892  0.22733788    -0.03200
C516        C  0.47473022  0.67032356  0.18841896    -0.00600
C517        C  0.46901983  0.69893838  0.15716672    -0.23500
C518        C  0.46695757  0.72268782  0.17777929    -0.23700
C519        C  0.47198359  0.70773783  0.22053549    -0.00700
H520        H  0.46651567  0.70209716  0.12312320     0.13100
H521        H  0.46245516  0.74812437  0.16316343     0.13200
N522        N  0.46584578  0.81065205  0.34191592    -0.03200
C523        C  0.46421547  0.81374721  0.38359910    -0.00600
C524        C  0.46683871  0.78387663  0.41467905    -0.23500
C525        C  0.46928553  0.76141847  0.39168431    -0.23700
C526        C  0.46811965  0.77842467  0.34743656    -0.00700
H527        H  0.46747612  0.77903701  0.45000228     0.13100
H528        H  0.47159689  0.73551061  0.40566591     0.13200
O529        O  0.06176745  0.97273948  0.08735526    -0.75000
O530        O  0.01979679  0.97789606  0.14784442    -0.53900
C531        C  0.04971786  0.97432233  0.12882254     0.78800
O532        O  0.48005362  0.58475939  0.43140999    -0.59600
O533        O  0.48383491  0.54700586  0.39398558    -0.52600
C534        C  0.48130191  0.57636224  0.39556708     0.70800
O535        O  0.48824880  0.57480625  0.07396078    -0.74100
O536        O  0.47757632  0.53421050  0.14231405    -0.54700
C537        C  0.48418668  0.56372696  0.11778705     0.76800
O538        O  0.07171729  0.97906910  0.43774244    -0.59300
O539        O  0.03374667  0.98363110  0.39935163    -0.52400
C540        C  0.06294232  0.98127400  0.40144363     0.73400
Zr541      Zr  0.04516656  0.97520358  0.01945116     2.54700
O542        O  0.09119361  0.51185077  0.99403801    -0.79800
O543        O  0.07481879  0.92447496  0.03098389    -0.93300
Zr544      Zr  0.48513326  0.55601643  0.01110328     2.64700
O545        O  0.03902980  0.57961945  0.97517674    -0.98200
O546        O  0.45212661  0.60426991  0.01147966    -0.80300
O547        O  0.01413534  0.51267306  0.05746854    -0.83600
O548        O  0.01911277  0.51628661  0.47114347    -2.18300
O549        O  0.46925740  0.90718870  0.49572912    -0.67000
O550        O  0.48096625  0.94771652  0.42715104    -0.51600
C551        C  0.47376514  0.91827672  0.45165696     0.71700
O552        O  0.38690289  0.00346990  0.12754015    -0.59900
O553        O  0.42416321  0.99892278  0.16694339    -0.51900
C554        C  0.39507245  0.00129514  0.16425187     0.73500
O555        O  0.39851665  0.01042713  0.47723296    -0.71300
O556        O  0.44011195  0.00330973  0.41761813    -0.50000
C557        C  0.41048106  0.00856194  0.43590242     0.74900
O558        O  0.46370849  0.90322314  0.14091684    -0.66700
O559        O  0.46624986  0.94166880  0.17491149    -0.53900
C560        C  0.46373348  0.91225549  0.17583213     0.73300
Zr561      Zr  0.46743458  0.92837794  0.05907560     2.77500
O562        O  0.41903557  0.89543395  0.09004759    -0.97400
O563        O  0.00445128  0.87361292  0.06747597    -0.78200
Zr564      Zr  0.41362879  0.00794224  0.04638949     2.70100
O565        O  0.36314907  0.97941861  0.06875130    -0.79500
O566        O  0.37919094  0.54627759  0.05229658    -0.98600
Zr567      Zr  0.47532932  0.99267139  0.11316796     2.21500
Zr568      Zr  0.48644635  0.99609380  0.44654898     2.11100
O569        O  0.44194418  0.96910742  0.01118953    -2.47200
O570        O  0.43760647  0.96617623  0.09528218    -0.79300
O571        O  0.01049514  0.94801163  0.50032948    -0.71500
O572        O  0.44519269  0.52603099  0.07616990    -2.32400
O573        O  0.00453112  0.94609021  0.08444335    -2.28600
O574        O  0.44897794  0.53023013  0.49064786    -0.73200
H575        H  0.03413172  0.52881124  0.44331598     0.78800
H576        H  0.43277218  0.54004248  0.09317432     0.79900
H577        H  0.42724477  0.95922090  0.00172834     0.82100
H578        H  0.01455080  0.93056226  0.10570182     0.79700
H579        H  0.43549094  0.59829937  0.04159423     0.42700
H580        H  0.39032966  0.56162691  0.02226016     0.41700
H581        H  0.36833154  0.95653351  0.08270629     0.41400
H582        H  0.40504772  0.90445445  0.11408291     0.39300
H583        H  0.99087253  0.85537793  0.07131361     0.42400
H584        H  0.09759845  0.93096439  0.01628474     0.37200
H585        H  0.08845146  0.52193728  0.01883461     0.43300
H586        H  0.03012082  0.60452226  0.46873621     0.39800
H587        H  0.40832559  0.90165786  0.06500864     0.44700
H588        H  0.06964881  0.91392264  0.01045316     0.43400
H589        H  0.04985015  0.57327983  0.00008828     0.43500
H590        H  0.35893240  0.54100333  0.04791096     0.43900
C591        C  0.44189702  0.87588714  0.44746417    -0.20000
C592        C  0.46954489  0.89520616  0.42822536    -0.06600
C593        C  0.98836833  0.88072619  0.40000682     0.14300
C594        C  0.48961497  0.86517638  0.37271457    -0.20000
C595        C  0.46314048  0.84441666  0.39439114    -0.06600
C596        C  0.43826613  0.85071494  0.43067568     0.14300
C597        C  0.40786444  0.83097514  0.45156238    -0.22100
H598        H  0.42338114  0.88008605  0.47645974     0.15600
H599        H  0.00277245  0.84940795  0.35671823     0.15600
C600        C  0.01920510  0.89958668  0.37860525    -0.23300
H601        H  0.39042140  0.84002321  0.47835191     0.05800
H602        H  0.41319430  0.80537274  0.46810513     0.09100
H603        H  0.39631476  0.83231074  0.42413526     0.09100
H604        H  0.03165991  0.89690510  0.40549453     0.09000
H605        H  0.01407741  0.92552594  0.36350265     0.09000
H606        H  0.03564186  0.89093848  0.35059136     0.05800
C607        C  0.43958751  0.85799693  0.30036633    -0.20000
C608        C  0.46579264  0.83660240  0.30036112    -0.06600
C609        C  0.49171036  0.84134637  0.25984415     0.14300
C610        C  0.48955859  0.86546374  0.21945141    -0.20000
C611        C  0.46323075  0.88651599  0.21926255    -0.06600
C612        C  0.43811729  0.88311105  0.26031941     0.14300
C613        C  0.40930046  0.90503239  0.26140277    -0.23400
H614        H  0.42001601  0.85459456  0.33171463     0.15600
H615        H  0.50930286  0.86878318  0.18823234     0.15600
C616        C  0.52280115  0.82298367  0.25870473    -0.23300
H617        H  0.39169709  0.89882162  0.29614952     0.05800
H618        H  0.39724085  0.90246139  0.23643452     0.09100
H619        H  0.41676496  0.93054021  0.25205232     0.09100
H620        H  0.52654279  0.80830925  0.23467264     0.09000
H621        H  0.01854943  0.80012609  0.30760015     0.09000
H622        H  0.54298068  0.84035142  0.24622503     0.05800
C623        C  0.00591991  0.59625866  0.31303399    -0.20000
C624        C  0.48004223  0.60250145  0.35295772    -0.06600
C625        C  0.45589458  0.62661711  0.35267718     0.14300
C626        C  0.45548842  0.65022564  0.31085138    -0.20000
C627        C  0.47941787  0.65140440  0.26964723    -0.06600
C628        C  0.00718986  0.62188674  0.27254675     0.14300
C629        C  0.03696561  0.62505503  0.23273540    -0.23400
H630        H  0.02475722  0.57812387  0.31307862     0.15600
H631        H  0.43621049  0.66780860  0.31008813     0.15600
C632        C  0.43024224  0.62738181  0.39610191    -0.23300
H633        H  0.05840180  0.62523392  0.24488012     0.05800
H634        H  0.03749555  0.64791943  0.20450267     0.09100
H635        H  0.03885877  0.60419314  0.21912696     0.09100
H636        H  0.44122326  0.63275569  0.42041813     0.09000
H637        H  0.41789959  0.60371679  0.41291643     0.09000
H638        H  0.41193899  0.64631872  0.38887943     0.05800
C639        C  0.00983033  0.63108031  0.14308021    -0.20000
C640        C  0.47946572  0.63939117  0.17780110    -0.06600
C641        C  0.45595020  0.61485459  0.19747178     0.14300
C642        C  0.45949068  0.58882589  0.17934878    -0.20000
C643        C  0.48547791  0.58741484  0.14146011    -0.06600
C644        C  0.01229226  0.60594963  0.12371186     0.14300
C645        C  0.04140778  0.60445104  0.08447472    -0.23400
H646        H  0.02817734  0.64965551  0.12854310     0.15600
H647        H  0.44082894  0.57061844  0.19282195     0.15600
C648        C  0.42611922  0.61708235  0.23512679    -0.23300
H649        H  0.05958213  0.62287036  0.07810582     0.05800
H650        H  0.03444204  0.60917256  0.05211351     0.09100
H651        H  0.05294263  0.58034119  0.09261079     0.09100
H652        H  0.41349877  0.64025343  0.22395685     0.09000
H653        H  0.43253821  0.61554361  0.26696363     0.09000
H654        H  0.40916385  0.59703119  0.24378081     0.05800
C655        C  0.49755934  0.74670165  0.29606898    -0.20000
C656        C  0.46918807  0.76259627  0.31228850    -0.06600
C657        C  0.44158742  0.75982583  0.29905860     0.14300
C658        C  0.44311333  0.74115873  0.26971506    -0.20000
C659        C  0.47153206  0.72532648  0.25345826    -0.06600
C660        C  0.99769681  0.72208870  0.27417077     0.14300
C661        C  0.03011777  0.70765098  0.25792362    -0.23400
H662        H  0.01309055  0.74167685  0.31907144     0.15600
H663        H  0.42200852  0.73876384  0.25946282     0.15600
C664        C  0.41028774  0.77550956  0.31700200    -0.23300
H665        H  0.04837585  0.71514177  0.27090894     0.05800
H666        H  0.03846011  0.71569206  0.21958777     0.09100
H667        H  0.02879473  0.68097538  0.27077577     0.09100
H668        H  0.41299919  0.80211572  0.30466264     0.09000
H669        H  0.40281635  0.76712892  0.35535531     0.09000
H670        H  0.39081149  0.76950646  0.30482797     0.05800
C671        C  0.33854424  0.03176627  0.39029794    -0.20000
C672        C  0.33504596  0.00409983  0.37866049    -0.06600
C673        C  0.35921564  0.98011439  0.37931600     0.14300
C674        C  0.38555926  0.98374275  0.39423507    -0.20000
C675        C  0.38772961  0.01036926  0.40909245    -0.06600
C676        C  0.36500400  0.03554665  0.40453869     0.14300
C677        C  0.36886339  0.06657984  0.41381317    -0.23400
H678        H  0.32000206  0.05019275  0.38922238     0.15600
H679        H  0.40320883  0.96449551  0.39758671     0.15600
C680        C  0.35696784  0.94951598  0.36783671    -0.23300
H681        H  0.34927237  0.08400775  0.40709752     0.05800
H682        H  0.38255359  0.56985422  0.40854724     0.09100
H683        H  0.35910041  0.06160575  0.96111257     0.09100
H684        H  0.37756615  0.94824232  0.33797783     0.09000
H685        H  0.33451790  0.94787012  0.35901803     0.09000
H686        H  0.35784833  0.92824031  0.39799228     0.05800
C687        C  0.36857656  0.02610055  0.22647900    -0.20000
C688        C  0.36908090  0.00153016  0.20645880    -0.06600
C689        C  0.34462163  0.97787503  0.22678021     0.14300
C690        C  0.32169945  0.97802188  0.26839605    -0.20000
C691        C  0.32109541  0.00255328  0.28863084    -0.06600
C692        C  0.34398594  0.02782172  0.26586056     0.14300
C693        C  0.33916403  0.54931867  0.28917306    -0.23400
H694        H  0.38404845  0.53619310  0.21933351     0.15600
H695        H  0.30413817  0.95878995  0.28539246     0.15600
C696        C  0.34268927  0.95236808  0.20481914    -0.23300
H697        H  0.33903020  0.57085173  0.25902050     0.05800
H698        H  0.36029609  0.55080900  0.30128209     0.09100
H699        H  0.31683687  0.55041117  0.31652165     0.09100
H700        H  0.36572932  0.93911569  0.19908146     0.09000
H701        H  0.33758683  0.96395100  0.17105430     0.09000
H702        H  0.32327876  0.93463484  0.22665788     0.05800
C703        C  0.13358501  0.00568243  0.29393217    -0.20000
C704        C  0.13649181  0.97863121  0.27795217    -0.06600
C705        C  0.11606870  0.44917966  0.30601355     0.14300
C706        C  0.09249594  0.45188325  0.34563405    -0.20000
C707        C  0.08829899  0.98112547  0.35886986    -0.06600
C708        C  0.10974368  0.00724581  0.33409281     0.14300
C709        C  0.10682981  0.03711820  0.34922083    -0.23400
H710        H  0.14978731  0.02587590  0.27435218     0.15600
H711        H  0.07669884  0.43177192  0.36651212     0.15600
C712        C  0.11821037  0.41765297  0.29525514    -0.23300
H713        H  0.12508701  0.05554798  0.32540204     0.05800
H714        H  0.11403081  0.52874418  0.38328867     0.09100
H715        H  0.08266647  0.04804065  0.34994491     0.09100
H716        H  0.12047969  0.39742319  0.32590326     0.09000
H717        H  0.13930278  0.92064147  0.26245905     0.09000
H718        H  0.09610029  0.41406994  0.28670203     0.05800
C719        C  0.10150486  0.99524515  0.19308561    -0.20000
C720        C  0.12590341  0.97213037  0.18848536    -0.06600
C721        C  0.12086621  0.44213875  0.17382639     0.14300
C722        C  0.09480957  0.44358634  0.15625829    -0.20000
C723        C  0.07268731  0.97181166  0.15568654    -0.06600
C724        C  0.07475787  0.99541786  0.17677842     0.14300
C725        C  0.05019132  0.02201531  0.17914942    -0.23400
H726        H  0.10438170  0.01435215  0.20674095     0.15600
H727        H  0.09285147  0.42589600  0.13957733     0.15600
C728        C  0.14406879  0.41437166  0.17160052    -0.23300
H729        H  0.05634625  0.03922813  0.19485970     0.05800
H730        H  0.02630683  0.01151312  0.20047364     0.09100
H731        H  0.04879288  0.03577435  0.14384948     0.09100
H732        H  0.16577265  0.92040724  0.18358650     0.09000
H733        H  0.15530634  0.41532185  0.13500269     0.09000
H734        H  0.13084836  0.39119444  0.19016798     0.05800
C735        C  0.22209606  0.51255606  0.25218250    -0.20000
C736        C  0.20939414  0.98674852  0.25892231    -0.06600
C737        C  0.21552032  0.95935049  0.29347869     0.14300
C738        C  0.23440403  0.96278636  0.32058822    -0.20000
C739        C  0.24755287  0.99280562  0.31323171    -0.06600
C740        C  0.23972632  0.51532540  0.28122670     0.14300
C741        C  0.25119740  0.54805380  0.27672090    -0.23400
H742        H  0.21727621  0.53382911  0.22598118     0.15600
H743        H  0.23923821  0.94194004  0.34738925     0.15600
C744        C  0.20303896  0.92642189  0.30086980    -0.23300
H745        H  0.24349708  0.56747371  0.24945614     0.05800
H746        H  0.27777198  0.54828320  0.26744567     0.09100
H747        H  0.24127951  0.55359471  0.30995786     0.09100
H748        H  0.21159704  0.91977791  0.26833581     0.09000
H749        H  0.17647228  0.92656499  0.31188854     0.09000
H750        H  0.21128618  0.90750164  0.32810104     0.05800
N751        N  0.16222545  0.48382230  0.73355974    -0.03200
C752        C  0.15818499  0.48030649  0.69458643    -0.00600
C753        C  0.18551548  0.96499097  0.66835122    -0.23500
C754        C  0.20901903  0.97242448  0.68440809    -0.23700
C755        C  0.19399175  0.97436897  0.72822274    -0.00700
H756        H  0.18856978  0.96266426  0.63441118     0.13100
H757        H  0.23422335  0.97628231  0.66607292     0.13200
N758        N  0.29705424  0.00649194  0.82720055    -0.03200
C759        C  0.30210705  0.00821680  0.86661884    -0.00600
C760        C  0.27340593  0.00645039  0.90064324    -0.23500
C761        C  0.24975706  0.00257688  0.88229115    -0.23700
C762        C  0.26486597  0.00258634  0.83758701    -0.00700
H763        H  0.27017606  0.00724820  0.93540616     0.13100
H764        H  0.22436574  0.99947482  0.89981746     0.13200
N765        N  0.47953055  0.67488743  0.73075343    -0.03200
C766        C  0.48062088  0.67058851  0.68976720    -0.00600
C767        C  0.47800209  0.69991220  0.65757334    -0.23500
C768        C  0.47414397  0.72306590  0.67963469    -0.23700
C769        C  0.47503666  0.70718414  0.72435232    -0.00700
H770        H  0.47829119  0.70390292  0.62204377     0.13100
H771        H  0.47086034  0.74873292  0.66479838     0.13200
N772        N  0.45534849  0.81079727  0.84874810    -0.03200
C773        C  0.45081181  0.81444971  0.89093190    -0.00600
C774        C  0.44926387  0.78462907  0.92398410    -0.23500
C775        C  0.45241681  0.76175318  0.90143209    -0.23700
C776        C  0.45580552  0.77842050  0.85545189    -0.00700
H777        H  0.44733889  0.78003323  0.96020312     0.13100
H778        H  0.45276042  0.73578852  0.91671175     0.13200
O779        O  0.06393518  0.96993543  0.58725047    -0.75000
O780        O  0.02241732  0.97509003  0.64836671    -0.53900
C781        C  0.05205874  0.97046154  0.62929917     0.78800
O782        O  0.48040613  0.58214597  0.93370788    -0.59600
O783        O  0.48430177  0.54446898  0.89618299    -0.52600
C784        C  0.48162805  0.57380161  0.89791533     0.70800
O785        O  0.48782493  0.57740443  0.57208048    -0.74100
O786        O  0.47919623  0.53633765  0.63994753    -0.54700
C787        C  0.48495974  0.56604620  0.61564323     0.76800
O788        O  0.07277057  0.97502602  0.94019756    -0.59300
O789        O  0.03620528  0.98273889  0.89876363    -0.52400
C790        C  0.06493467  0.97800301  0.90296011     0.73400
Zr791      Zr  0.04606682  0.97662447  0.51868852     2.54700
O792        O  0.09109979  0.51357178  0.49168956    -0.79800
O793        O  0.07946246  0.92830305  0.52429053    -0.93300
Zr794      Zr  0.48457480  0.55842085  0.50928512     2.64700
O795        O  0.03668157  0.58167284  0.47236405    -0.98200
O796        O  0.45112537  0.60627334  0.51050953    -0.80300
O797        O  0.01456254  0.51283392  0.55670935    -0.83600
O798        O  0.01928013  0.51656461  0.97168213    -2.18300
O799        O  0.46405542  0.90919264  0.99617368    -0.67000
O800        O  0.47598148  0.94931264  0.92711759    -0.51600
C801        C  0.46813732  0.92011279  0.95221509     0.71700
O802        O  0.38769090  0.00272327  0.62600695    -0.59900
O803        O  0.42454209  0.99896517  0.66585047    -0.51900
C804        C  0.39557031  0.00152837  0.66253375     0.73500
O805        O  0.39591967  0.01506407  0.97775995    -0.71300
O806        O  0.43675775  0.00684547  0.91810528    -0.50000
C807        C  0.40737600  0.01314799  0.93639992     0.74900
O808        O  0.46537388  0.90187863  0.64209798    -0.66700
O809        O  0.46519686  0.94068248  0.67661773    -0.53900
C810        C  0.46339689  0.91117467  0.67756936     0.73300
Zr811      Zr  0.47089424  0.92666713  0.55925546     2.77500
O812        O  0.42242847  0.89408992  0.58716256    -0.97400
O813        O  0.00720578  0.87317601  0.56719254    -0.78200
Zr814      Zr  0.41525198  0.00476426  0.54626268     2.70100
O815        O  0.36642632  0.97336922  0.56961512    -0.79500
O816        O  0.37681784  0.54624381  0.55185341    -0.98600
Zr817      Zr  0.47628442  0.99105410  0.61411321     2.21500
Zr818      Zr  0.48384020  0.99724782  0.94605272     2.11100
O819        O  0.44502500  0.96662637  0.51105216    -2.47200
O820        O  0.43959967  0.96367210  0.59565273    -0.79300
O821        O  0.00956218  0.94776140  0.99975982    -0.71500
O822        O  0.44527543  0.52781662  0.57477022    -2.32400
O823        O  0.00668390  0.94631310  0.58426323    -2.28600
O824        O  0.44969979  0.52815526  0.99182291    -0.73200
H825        H  0.03458826  0.52893951  0.94409336     0.78800
H826        H  0.43288838  0.54181075  0.59184514     0.79900
H827        H  0.43088415  0.95623638  0.50130115     0.82100
H828        H  0.01743282  0.93081049  0.60450837     0.79700
H829        H  0.42924988  0.59770117  0.52781780     0.42700
H830        H  0.38593862  0.56091998  0.52032315     0.41700
H831        H  0.37090060  0.95251780  0.59099629     0.41400
H832        H  0.42991639  0.87156171  0.59785601     0.39300
H833        H  0.02039910  0.87741151  0.53472239     0.42400
H834        H  0.10091516  0.93617029  0.50362831     0.37200
H835        H  0.08662948  0.53116127  0.46555427     0.43300
H836        H  0.03365566  0.60275403  0.97116076     0.39800
H837        H  0.41008292  0.89904531  0.61583608     0.44700
H838        H  0.07155030  0.91595919  0.50817988     0.43400
H839        H  0.04838598  0.57625518  0.49621814     0.43500
H840        H  0.35600355  0.53915274  0.55140025     0.43900
C841        C  0.43272292  0.88154885  0.94654406    -0.20000
C842        C  0.46260838  0.89702534  0.92983930    -0.06600
C843        C  0.99234156  0.88116631  0.89715206     0.14300
C844        C  0.48191827  0.86211088  0.88106152    -0.20000
C845        C  0.45273245  0.84527584  0.90012392    -0.06600
C846        C  0.42748283  0.85570190  0.93211581     0.14300
C847        C  0.39512868  0.83945658  0.95131931    -0.22100
H848        H  0.41376168  0.88904612  0.97219651     0.15600
H849        H  0.00894349  0.84866549  0.85599978     0.15600
C850        C  0.02246968  0.90109532  0.87542173    -0.23300
H851        H  0.37780822  0.85155917  0.97448702     0.05800
H852        H  0.39735011  0.81389947  0.97161305     0.09100
H853        H  0.38514732  0.84033419  0.92253549     0.09100
H854        H  0.03403551  0.89997406  0.90267461     0.09000
H855        H  0.01661088  0.92657035  0.85886564     0.09000
H856        H  0.03983908  0.89205885  0.84854228     0.05800
C857        C  0.43221693  0.85796470  0.80197580    -0.20000
C858        C  0.45806740  0.83653350  0.80609895    -0.06600
C859        C  0.48615355  0.84099511  0.76867785     0.14300
C860        C  0.48669869  0.86495506  0.72683888    -0.20000
C861        C  0.46056685  0.88581696  0.72225592    -0.06600
C862        C  0.43315770  0.88263296  0.76051388     0.14300
C863        C  0.40437881  0.90411807  0.75696159    -0.23400
H864        H  0.41095348  0.85477411  0.83109765     0.15600
H865        H  0.50816189  0.86810323  0.69796831     0.15600
C866        C  0.51649195  0.82222776  0.77256349    -0.23300
H867        H  0.38490742  0.89827324  0.78996790     0.05800
H868        H  0.39496792  0.90051707  0.72999038     0.09100
H869        H  0.41114522  0.92983274  0.74772572     0.09100
H870        H  0.52250586  0.80753278  0.74831862     0.09000
H871        H  0.02671309  0.79751896  0.80308356     0.09000
H872        H  0.53648055  0.83931889  0.76341636     0.05800
C873        C  0.00828443  0.59627447  0.81105547    -0.20000
C874        C  0.48045574  0.60010675  0.85556309    -0.06600
C875        C  0.45724408  0.62514699  0.85577533     0.14300
C876        C  0.45705568  0.64897925  0.81406659    -0.20000
C877        C  0.48106390  0.65013441  0.77294723    -0.06600
C878        C  0.00965168  0.62147245  0.76996448     0.14300
C879        C  0.03811314  0.62239003  0.72901891    -0.23400
H880        H  0.02629768  0.57732101  0.81115166     0.15600
H881        H  0.43821459  0.66703282  0.81353650     0.15600
C882        C  0.43295829  0.62732071  0.89970361    -0.23300
H883        H  0.06057937  0.62124578  0.73929080     0.05800
H884        H  0.03916152  0.64502523  0.70024849     0.09100
H885        H  0.03741552  0.60127004  0.71683940     0.09100
H886        H  0.44540794  0.63283260  0.92235937     0.09000
H887        H  0.41981531  0.60423700  0.91839813     0.09000
H888        H  0.41514426  0.64685886  0.89278241     0.05800
C889        C  0.00902714  0.63260310  0.64001725    -0.20000
C890        C  0.48423544  0.63969657  0.67862285    -0.06600
C891        C  0.45992230  0.61585288  0.69779929     0.14300
C892        C  0.46198874  0.59069889  0.67826583    -0.20000
C893        C  0.48717361  0.58942471  0.63945898    -0.06600
C894        C  0.01120873  0.60735979  0.62098977     0.14300
C895        C  0.03921430  0.60698610  0.57976388    -0.23400
H896        H  0.02690063  0.65165690  0.62422979     0.15600
H897        H  0.44285718  0.57299668  0.69163703     0.15600
C898        C  0.43069053  0.61784130  0.73646691    -0.23300
H899        H  0.05705054  0.62604262  0.57208528     0.05800
H900        H  0.03078946  0.61164177  0.54859101     0.09100
H901        H  0.05171532  0.58333561  0.58632754     0.09100
H902        H  0.41924110  0.64198429  0.72769522     0.09000
H903        H  0.43749446  0.61329921  0.76883106     0.09000
H904        H  0.41252144  0.59934452  0.74312023     0.05800
C905        C  0.48993837  0.74563859  0.80861891    -0.20000
C906        C  0.46088011  0.76211684  0.81958163    -0.06600
C907        C  0.43617997  0.75953102  0.80041635     0.14300
C908        C  0.44120061  0.74045923  0.77065632    -0.20000
C909        C  0.47038202  0.72416632  0.75942346    -0.06600
C910        C  0.00472169  0.72254732  0.76952226     0.14300
C911        C  0.03728673  0.71020902  0.74880643    -0.23400
H912        H  0.02137523  0.73991475  0.81551020     0.15600
H913        H  0.42233590  0.73837953  0.75574208     0.15600
C914        C  0.40434647  0.77618562  0.81206518    -0.23300
H915        H  0.05593582  0.71609815  0.76258066     0.05800
H916        H  0.04443055  0.72155148  0.71074961     0.09100
H917        H  0.03676449  0.68362272  0.75667767     0.09100
H918        H  0.40779732  0.80271733  0.79957683     0.09000
H919        H  0.39334760  0.76841007  0.85002740     0.09000
H920        H  0.38729795  0.77043680  0.79555152     0.05800
C921        C  0.33579609  0.03853199  0.88904762    -0.20000
C922        C  0.33310614  0.01202975  0.87430924    -0.06600
C923        C  0.35746180  0.98817713  0.87434604     0.14300
C924        C  0.38333917  0.99111634  0.89069367    -0.20000
C925        C  0.38435623  0.01610705  0.90938421    -0.06600
C926        C  0.36090185  0.04077016  0.90701940     0.14300
C927        C  0.36202171  0.06943061  0.92341453    -0.23400
H928        H  0.31713643  0.05685037  0.88854910     0.15600
H929        H  0.40133986  0.97214684  0.89266038     0.15600
C930        C  0.35579470  0.95803149  0.86145761    -0.23300
H931        H  0.34257005  0.08705538  0.91670590     0.05800
H932        H  0.39798999  0.56999371  0.89306232     0.09100
H933        H  0.36864087  0.06195975  0.45025133     0.09100
H934        H  0.37605961  0.95782511  0.83068136     0.09000
H935        H  0.33302669  0.95578828  0.85392006     0.09000
H936        H  0.35769649  0.93638898  0.89061588     0.05800
C937        C  0.36892033  0.02858442  0.72212064    -0.20000
C938        C  0.36929395  0.00316987  0.70372738    -0.06600
C939        C  0.34437537  0.98002674  0.72458738     0.14300
C940        C  0.32129177  0.98131904  0.76552394    -0.20000
C941        C  0.32088513  0.00665763  0.78425620    -0.06600
C942        C  0.34414105  0.03149795  0.76063437     0.14300
C943        C  0.34181296  0.55725408  0.78255112    -0.23400
H944        H  0.38563967  0.54145251  0.71412967     0.15600
H945        H  0.30345675  0.96239609  0.78306563     0.15600
C946        C  0.34202015  0.95400128  0.70374187    -0.23300
H947        H  0.34192240  0.57815367  0.75151904     0.05800
H948        H  0.36325378  0.55883196  0.79394603     0.09100
H949        H  0.31979973  0.55945854  0.80974577     0.09100
H950        H  0.36502832  0.94078292  0.69775284     0.09000
H951        H  0.33655810  0.96514393  0.67014201     0.09000
H952        H  0.32271949  0.93634778  0.72637473     0.05800
C953        C  0.13403952  0.99936824  0.79284438    -0.20000
C954        C  0.13837503  0.97012549  0.78191888    -0.06600
C955        C  0.11865627  0.45505548  0.80295757     0.14300
C956        C  0.09471509  0.45580454  0.84339200    -0.20000
C957        C  0.09086269  0.97577981  0.86184199    -0.06600
C958        C  0.11042363  0.00252384  0.83240994     0.14300
C959        C  0.10607965  0.03439774  0.84257595    -0.23400
H960        H  0.14883319  0.01993661  0.76975052     0.15600
H961        H  0.08029601  0.43453977  0.86369584     0.15600
C962        C  0.12330656  0.42390658  0.79080457    -0.23300
H963        H  0.12326906  0.05286995  0.81607132     0.05800
H964        H  0.10982078  0.53363844  0.88413137     0.09100
H965        H  0.08133259  0.04355506  0.84321192     0.09100
H966        H  0.12695516  0.40380239  0.82072213     0.09000
H967        H  0.14393597  0.90936283  0.77496549     0.09000
H968        H  0.10164181  0.41875209  0.78248868     0.05800
C969        C  0.10363380  0.98492541  0.69829284    -0.20000
C970        C  0.12564152  0.95944297  0.69639887    -0.06600
C971        C  0.12550211  0.44941404  0.66830973     0.14300
C972        C  0.09951396  0.44944133  0.65101996    -0.20000
C973        C  0.07450611  0.96532843  0.65747411    -0.06600
C974        C  0.07787919  0.98811353  0.67912399     0.14300
C975        C  0.05590809  0.01698636  0.67904556    -0.23400
H976        H  0.10799481  0.00372851  0.71148625     0.15600
H977        H  0.09858041  0.43151261  0.63422074     0.15600
C978        C  0.15020284  0.42296276  0.66491968    -0.23300
H979        H  0.06293842  0.03309582  0.69568986     0.05800
H980        H  0.03092509  0.00881879  0.69841763     0.09100
H981        H  0.05670953  0.03130538  0.64298443     0.09100
H982        H  0.15975379  0.90392147  0.69780953     0.09000
H983        H  0.16191576  0.42502980  0.62803010     0.09000
H984        H  0.13817668  0.39907025  0.68227488     0.05800
C985        C  0.21991317  0.52368795  0.75233072    -0.20000
C986        C  0.21104990  0.98156941  0.75752144    -0.06600
C987        C  0.21755200  0.95713800  0.79520349     0.14300
C988        C  0.23553843  0.96479282  0.82043028    -0.20000
C989        C  0.24769786  0.99599877  0.80798726    -0.06600
C990        C  0.23778313  0.52726868  0.78060829     0.14300
C991        C  0.24741465  0.56048463  0.77709525    -0.23400
H992        H  0.21337965  0.54478822  0.72745715     0.15600
H993        H  0.24041748  0.94631542  0.84984241     0.15600
C994        C  0.20644311  0.92286922  0.80804081    -0.23300
H995        H  0.23876039  0.57960604  0.75050879     0.05800
H996        H  0.27397810  0.56207666  0.76756144     0.09100
H997        H  0.23708063  0.56522798  0.81083569     0.09100
H998        H  0.21530188  0.91358319  0.77780920     0.09000
H999        H  0.17995488  0.92199226  0.81967455     0.09000
H1000       H  0.21538272  0.90654996  0.83670291     0.05800
N1001       N  0.66330096  0.98382519  0.22957300    -0.03200
C1002       C  0.65879095  0.98171864  0.19013654    -0.00600
C1003       C  0.68526290  0.48005258  0.16376624    -0.23500
C1004       C  0.70861609  0.48512990  0.18191414    -0.23700
C1005       C  0.69302450  0.48654429  0.22579967    -0.00700
H1006       H  0.68889130  0.47787819  0.12961397     0.13100
H1007       H  0.73416189  0.48730142  0.16518913     0.13200
N1008       N  0.79589255  0.50275904  0.33522105    -0.03200
C1009       C  0.80039885  0.50558726  0.37425237    -0.00600
C1010       C  0.77145399  0.50874967  0.40535315    -0.23500
C1011       C  0.74797799  0.50698012  0.38531515    -0.23700
C1012       C  0.76366644  0.50305733  0.34280089    -0.00700
H1013       H  0.76785743  0.51131845  0.43928038     0.13100
H1014       H  0.72230324  0.50808967  0.40018574     0.13200
N1015       N  0.98370274  0.17008079  0.22652688    -0.03200
C1016       C  0.98195509  0.16659877  0.18630592    -0.00600
C1017       C  0.97758329  0.19616595  0.15581802    -0.23500
C1018       C  0.97563972  0.21876751  0.17828377    -0.23700
C1019       C  0.97942108  0.20219620  0.22131662    -0.00700
H1020       H  0.97543776  0.20064623  0.12127035     0.13100
H1021       H  0.97149542  0.24443694  0.16501367     0.13200
N1022       N  0.96639566  0.29990312  0.35043263    -0.03200
C1023       C  0.96324047  0.30303569  0.39255479    -0.00600
C1024       C  0.96320340  0.27302287  0.42474424    -0.23500
C1025       C  0.96565105  0.25048905  0.40186980    -0.23700
C1026       C  0.96722680  0.26761929  0.35661083    -0.00700
H1027       H  0.96210168  0.26809746  0.46075884     0.13100
H1028       H  0.96630911  0.22448184  0.41652310     0.13200
O1029       O  0.56134893  0.47815969  0.08795423    -0.75000
O1030       O  0.51945514  0.48042993  0.15012458    -0.53900
C1031       C  0.54938171  0.47809085  0.13023024     0.78800
O1032       O  0.98457256  0.07836454  0.43079457    -0.59600
O1033       O  0.98781632  0.04021305  0.39419849    -0.52600
C1034       C  0.98585969  0.06969508  0.39510237     0.70800
O1035       O  0.99089927  0.07204949  0.06957135    -0.74100
O1036       O  0.97897613  0.03231374  0.13871215    -0.54700
C1037       C  0.98627178  0.06155555  0.11351096     0.76800
O1038       O  0.57114363  0.48702760  0.43597357    -0.59300
O1039       O  0.53333450  0.49131570  0.39735162    -0.52400
C1040       C  0.56257625  0.48907637  0.39958974     0.73400
Zr1041     Zr  0.54463862  0.48163511  0.01951224     2.54700
O1042       O  0.59804340  0.00751554  0.98686997    -0.79800
O1043       O  0.58040185  0.43523795  0.03105481    -0.93300
Zr1044     Zr  0.99014014  0.05281813  0.00616432     2.64700
O1045       O  0.54327478  0.08994171  0.96716673    -0.98200
O1046       O  0.96410445  0.10513094  0.00225943    -0.80300
O1047       O  0.51749038  0.02053048  0.04848294    -0.83600
O1048       O  0.52334239  0.02382719  0.46417406    -2.18300
O1049       O  0.96973078  0.39741855  0.50247563    -0.67000
O1050       O  0.97928080  0.43826001  0.43415970    -0.51600
C1051       C  0.97333200  0.40856671  0.45861863     0.71700
O1052       O  0.88452854  0.49322615  0.13583782    -0.59900
O1053       O  0.92199662  0.48867986  0.17492923    -0.51900
C1054       C  0.89291585  0.49177725  0.17216634     0.73500
O1055       O  0.89546159  0.49938269  0.48680875    -0.71300
O1056       O  0.93666712  0.49306721  0.42611780    -0.50000
C1057       C  0.90715548  0.49812908  0.44515329     0.74900
O1058       O  0.96754769  0.39230975  0.14724127    -0.66700
O1059       O  0.96638990  0.43080707  0.18262520    -0.53900
C1060       C  0.96615581  0.40126394  0.18277149     0.73300
Zr1061     Zr  0.96942824  0.41805630  0.06581504     2.77500
O1062       O  0.92035936  0.38607649  0.09727955    -0.97400
O1063       O  0.51009952  0.37829095  0.06505353    -0.78200
Zr1064     Zr  0.91156443  0.49425840  0.05584218     2.70100
O1065       O  0.86600499  0.45802339  0.08105716    -0.79500
O1066       O  0.88403448  0.04942134  0.04086961    -0.98600
Zr1067     Zr  0.97326529  0.48217003  0.12157896     2.21500
Zr1068     Zr  0.98338256  0.48702860  0.45382117     2.11100
O1069       O  0.94257636  0.45760514  0.01863669    -2.47200
O1070       O  0.93715546  0.45372609  0.10396907    -0.79300
O1071       O  0.51024311  0.45505866  0.49767289    -0.71500
O1072       O  0.94813951  0.02542101  0.07056313    -2.32400
O1073       O  0.50584550  0.44998931  0.08456807    -2.28600
O1074       O  0.95224137  0.02591142  0.49056910    -0.73200
H1075       H  0.53890557  0.03573742  0.43651270     0.78800
H1076       H  0.93622974  0.04030244  0.08641494     0.79900
H1077       H  0.92868901  0.44693074  0.00884882     0.82100
H1078       H  0.51683062  0.43485130  0.10486940     0.79700
H1079       H  0.94107113  0.10070816  0.00831886     0.42700
H1080       H  0.89456398  0.06252014  0.00884488     0.41700
H1081       H  0.84869743  0.47183100  0.07044467     0.41400
H1082       H  0.91291173  0.38730383  0.07016310     0.39300
H1083       H  0.52633580  0.38595492  0.03476010     0.42400
H1084       H  0.60222895  0.44469229  0.01876087     0.37200
H1085       H  0.59350567  0.02867509  0.99286975     0.43300
H1086       H  0.53932211  0.11064914  0.45910957     0.39800
H1087       H  0.92767597  0.36345189  0.10765217     0.44700
H1088       H  0.57894929  0.42425313  0.00874564     0.43400
H1089       H  0.55362796  0.08387919  0.99258133     0.43500
H1090       H  0.86257928  0.04431558  0.04002823     0.43900
C1091       C  0.94102767  0.36702011  0.45336322    -0.20000
C1092       C  0.96941060  0.38517738  0.43555681    -0.06600
C1093       C  0.49242093  0.38817734  0.39412095     0.14300
C1094       C  0.99048617  0.35317367  0.38286924    -0.20000
C1095       C  0.96297476  0.33373695  0.40297226    -0.06600
C1096       C  0.93739474  0.34152274  0.43718194     0.14300
C1097       C  0.90622114  0.32306400  0.45644867    -0.22100
H1098       H  0.92190254  0.37238759  0.48081604     0.15600
H1099       H  0.50939769  0.35686490  0.35113758     0.15600
C1100       C  0.52119206  0.40991084  0.37086517    -0.23300
H1101       H  0.88826940  0.33338228  0.48130235     0.05800
H1102       H  0.91016297  0.29746476  0.47488546     0.09100
H1103       H  0.89597705  0.32411021  0.42783909     0.09100
H1104       H  0.53382865  0.40883946  0.39693835     0.09000
H1105       H  0.51356633  0.43512680  0.35637378     0.09000
H1106       H  0.53817374  0.40235135  0.34219372     0.05800
C1107       C  0.94028262  0.34626361  0.30683046    -0.20000
C1108       C  0.96703651  0.32576887  0.30846188    -0.06600
C1109       C  0.99392790  0.33114750  0.26909172     0.14300
C1110       C  0.99249550  0.35532843  0.22822930    -0.20000
C1111       C  0.96559968  0.37554375  0.22646144    -0.06600
C1112       C  0.93930396  0.37120115  0.26637128     0.14300
C1113       C  0.90979398  0.39203686  0.26575749    -0.23400
H1114       H  0.91989611  0.34229311  0.33726212     0.15600
H1115       H  0.01302906  0.35920007  0.19792463     0.15600
C1116       C  0.02505558  0.31314617  0.26976910    -0.23300
H1117       H  0.89112970  0.38494144  0.29952179     0.05800
H1118       H  0.89950513  0.38943899  0.23895852     0.09100
H1119       H  0.91605652  0.41774219  0.25788171     0.09100
H1120       H  0.03023076  0.29884355  0.24506222     0.09000
H1121       H  0.52745177  0.30484811  0.30522390     0.09000
H1122       H  0.04483837  0.33071527  0.25923585     0.05800
C1123       C  0.51028002  0.10436108  0.30365204    -0.20000
C1124       C  0.98499970  0.09563576  0.35202047    -0.06600
C1125       C  0.96141415  0.12026851  0.35148800     0.14300
C1126       C  0.96141774  0.14397166  0.30965325    -0.20000
C1127       C  0.98520480  0.14484251  0.26844163    -0.06600
C1128       C  0.51122152  0.12992814  0.26312502     0.14300
C1129       C  0.54019488  0.13228306  0.22237818    -0.23400
H1130       H  0.52894008  0.08605303  0.30331720     0.15600
H1131       H  0.94249622  0.16192592  0.30894123     0.15600
C1132       C  0.93572354  0.12138669  0.39467577    -0.23300
H1133       H  0.56230613  0.13142253  0.23340787     0.05800
H1134       H  0.54099035  0.15531341  0.19437050     0.09100
H1135       H  0.54054749  0.11160603  0.20886311     0.09100
H1136       H  0.94668366  0.12655955  0.41915042     0.09000
H1137       H  0.92309456  0.09787369  0.41130404     0.09000
H1138       H  0.91768267  0.14057444  0.38722355     0.05800
C1139       C  0.51273051  0.14330103  0.13133738    -0.20000
C1140       C  0.98501237  0.13634303  0.17417474    -0.06600
C1141       C  0.96094157  0.11233737  0.19409265     0.14300
C1142       C  0.96331882  0.08669344  0.17551149    -0.20000
C1143       C  0.98825650  0.08553542  0.13634306    -0.06600
C1144       C  0.51540790  0.11835121  0.11154231     0.14300
C1145       C  0.54396793  0.11811747  0.07098226    -0.23400
H1146       H  0.53064889  0.16230850  0.11654161     0.15600
H1147       H  0.94450218  0.06861162  0.18974035     0.15600
C1148       C  0.93153648  0.11487411  0.23222168    -0.23300
H1149       H  0.56180677  0.13691591  0.06442737     0.05800
H1150       H  0.53615960  0.12324216  0.03921211     0.09100
H1151       H  0.55620607  0.09430714  0.07767235     0.09100
H1152       H  0.91968619  0.13865131  0.22189728     0.09000
H1153       H  0.93818564  0.11198833  0.26427242     0.09000
H1154       H  0.91376183  0.09569904  0.24018853     0.05800
C1155       C  0.99932642  0.23717840  0.30516523    -0.20000
C1156       C  0.97009523  0.25201213  0.32079168    -0.06600
C1157       C  0.94356010  0.24906294  0.30543953     0.14300
C1158       C  0.94730411  0.23224953  0.27324394    -0.20000
C1159       C  0.97674260  0.21794701  0.25694770    -0.06600
C1160       C  0.50494261  0.22991101  0.26635455     0.14300
C1161       C  0.53759901  0.21820692  0.24478925    -0.23400
H1162       H  0.52206287  0.24779107  0.31138679     0.15600
H1163       H  0.92713055  0.22997427  0.26093029     0.15600
C1164       C  0.91112688  0.26255965  0.32412279    -0.23300
H1165       H  0.55634125  0.22428260  0.25823906     0.05800
H1166       H  0.54432510  0.22970651  0.20678289     0.09100
H1167       H  0.53741708  0.19161233  0.25249054     0.09100
H1168       H  0.91254146  0.28916770  0.31529421     0.09000
H1169       H  0.90295070  0.25191343  0.36225795     0.09000
H1170       H  0.89281276  0.25703114  0.30946449     0.05800
C1171       C  0.84113068  0.53198747  0.39000811    -0.20000
C1172       C  0.83130026  0.50420594  0.38437406    -0.06600
C1173       C  0.84887845  0.47512583  0.39401290     0.14300
C1174       C  0.87551522  0.47446085  0.41051971    -0.20000
C1175       C  0.88429328  0.50192503  0.41817182    -0.06600
C1176       C  0.86786459  0.53130906  0.40602140     0.14300
C1177       C  0.87879463  0.56192313  0.40944574    -0.23400
H1178       H  0.82742481  0.55415175  0.38265099     0.15600
H1179       H  0.88823049  0.45188298  0.42023415     0.15600
C1180       C  0.83902615  0.44394500  0.39053545    -0.23300
H1181       H  0.86342917  0.58288323  0.39797334     0.05800
H1182       H  0.87974121  0.06805116  0.42174008     0.09100
H1183       H  0.87207294  0.55724740  0.95184721     0.09100
H1184       H  0.85856987  0.43556368  0.36517440     0.09000
H1185       H  0.81678904  0.44619216  0.37960894     0.09000
H1186       H  0.83471764  0.42522602  0.42478408     0.05800
C1187       C  0.86778933  0.52072367  0.22989927    -0.20000
C1188       C  0.86737955  0.49435237  0.21368120    -0.06600
C1189       C  0.84265862  0.47116374  0.23722731     0.14300
C1190       C  0.82011651  0.47389415  0.27791519    -0.20000
C1191       C  0.82014216  0.50053256  0.29384838    -0.06600
C1192       C  0.84365020  0.52488873  0.26826764     0.14300
C1193       C  0.84253079  0.05054492  0.28546903    -0.23400
H1194       H  0.88467593  0.03887946  0.21208478     0.15600
H1195       H  0.80221914  0.45523815  0.29727125     0.15600
C1196       C  0.84004703  0.44353339  0.21955172    -0.23300
H1197       H  0.84159674  0.07276542  0.25664100     0.05800
H1198       H  0.86467446  0.05112154  0.29581809     0.09100
H1199       H  0.82124358  0.05111759  0.31461053     0.09100
H1200       H  0.86268975  0.42948192  0.21628980     0.09000
H1201       H  0.83544952  0.45308797  0.18515343     0.09000
H1202       H  0.82006753  0.42693336  0.24299600     0.05800
C1203       C  0.63317815  0.51183504  0.29099428    -0.20000
C1204       C  0.63691325  0.48346787  0.27780489    -0.06600
C1205       C  0.61798883  0.95791610  0.29821366     0.14300
C1206       C  0.59465390  0.96003789  0.33835054    -0.20000
C1207       C  0.58829026  0.48809595  0.35747126    -0.06600
C1208       C  0.60915639  0.51441789  0.33060634     0.14300
C1209       C  0.60573138  0.54529327  0.34335903    -0.23400
H1210       H  0.64881628  0.53218579  0.26970044     0.15600
H1211       H  0.57863560  0.93997808  0.35847722     0.15600
C1212       C  0.61985200  0.92690277  0.28623969    -0.23300
H1213       H  0.62360872  0.56368363  0.31829447     0.05800
H1214       H  0.61839989  0.03387792  0.37995029     0.09100
H1215       H  0.58134207  0.55553952  0.34392217     0.09100
H1216       H  0.62198155  0.90618126  0.31641348     0.09000
H1217       H  0.64118687  0.42376769  0.26725190     0.09000
H1218       H  0.59770226  0.92391062  0.27734380     0.05800
C1219       C  0.60092833  0.49647576  0.19654511    -0.20000
C1220       C  0.62530027  0.47345264  0.19095688    -0.06600
C1221       C  0.62385306  0.95224982  0.16526168     0.14300
C1222       C  0.59776352  0.95345324  0.14769054    -0.20000
C1223       C  0.57230797  0.47465553  0.15730970    -0.06600
C1224       C  0.57398725  0.49701814  0.18056873     0.14300
C1225       C  0.54854432  0.52245501  0.18620872    -0.23400
H1226       H  0.60382591  0.51514909  0.21095246     0.15600
H1227       H  0.59545117  0.93508499  0.13234477     0.15600
C1228       C  0.64663643  0.92402561  0.16428289    -0.23300
H1229       H  0.55449026  0.53888584  0.20328290     0.05800
H1230       H  0.52522501  0.51071109  0.20780594     0.09100
H1231       H  0.54601954  0.53721063  0.15192685     0.09100
H1232       H  0.66311966  0.42015574  0.18859214     0.09000
H1233       H  0.65770420  0.92409194  0.12800765     0.09000
H1234       H  0.63309650  0.90113559  0.18385452     0.05800
C1235       C  0.72163933  0.01783589  0.25395720    -0.20000
C1236       C  0.70990314  0.49037775  0.25739273    -0.06600
C1237       C  0.71905524  0.46328302  0.28952933     0.14300
C1238       C  0.73705811  0.46807834  0.31684772    -0.20000
C1239       C  0.74684107  0.49915722  0.31122352    -0.06600
C1240       C  0.73920208  0.01911348  0.28387940     0.14300
C1241       C  0.74851158  0.05136250  0.28450020    -0.23400
H1242       H  0.71541022  0.03999534  0.23055655     0.15600
H1243       H  0.74366942  0.44758855  0.34253424     0.15600
C1244       C  0.71038248  0.42944962  0.29431932    -0.23300
H1245       H  0.73966214  0.07173562  0.25961325     0.05800
H1246       H  0.77503353  0.05315179  0.27508998     0.09100
H1247       H  0.73810879  0.05394813  0.31958585     0.09100
H1248       H  0.72030389  0.42443487  0.26070238     0.09000
H1249       H  0.68391662  0.42682874  0.30528845     0.09000
H1250       H  0.72014849  0.41107032  0.32042738     0.05800
N1251       N  0.66247760  0.97131250  0.73712181    -0.03200
C1252       C  0.65845388  0.96650478  0.69888726    -0.00600
C1253       C  0.68408645  0.46687451  0.67124321    -0.23500
C1254       C  0.70766444  0.47247227  0.68864275    -0.23700
C1255       C  0.69228500  0.47553832  0.73172384    -0.00700
H1256       H  0.68752607  0.46398908  0.63753099     0.13100
H1257       H  0.73319636  0.47422809  0.67175098     0.13200
N1258       N  0.79604820  0.50061824  0.83461165    -0.03200
C1259       C  0.80097301  0.50226220  0.87401621    -0.00600
C1260       C  0.77223953  0.50168714  0.90748382    -0.23500
C1261       C  0.74853664  0.49885494  0.88847114    -0.23700
C1262       C  0.76382293  0.49822243  0.84406519    -0.00700
H1263       H  0.76902544  0.50213780  0.94240245     0.13100
H1264       H  0.72302218  0.49670210  0.90542984     0.13200
N1265       N  0.98068326  0.17199829  0.72800161    -0.03200
C1266       C  0.97716215  0.16819910  0.68887510    -0.00600
C1267       C  0.97215475  0.19779710  0.65888548    -0.23500
C1268       C  0.97172844  0.22058522  0.68071105    -0.23700
C1269       C  0.97707631  0.20411347  0.72281899    -0.00700
H1270       H  0.96911619  0.20226742  0.62482254     0.13100
H1271       H  0.96799764  0.24633008  0.66737884     0.13200
N1272       N  0.97342780  0.30088482  0.84932100    -0.03200
C1273       C  0.96947017  0.30439873  0.89135265    -0.00600
C1274       C  0.97079502  0.27476182  0.92367428    -0.23500
C1275       C  0.97487061  0.25193305  0.90087515    -0.23700
C1276       C  0.97601862  0.26862607  0.85558503    -0.00700
H1277       H  0.96908024  0.27029433  0.95980432     0.13100
H1278       H  0.97597744  0.22599545  0.91588533     0.13200
O1279       O  0.56273572  0.47716298  0.58544849    -0.75000
O1280       O  0.52090341  0.48029781  0.64734177    -0.53900
C1281       C  0.55073430  0.47663672  0.62795415     0.78800
O1282       O  0.98560065  0.07869610  0.92853906    -0.59600
O1283       O  0.98819411  0.04092761  0.89157851    -0.52600
C1284       C  0.98625875  0.07032639  0.89295209     0.70800
O1285       O  0.98938294  0.07205255  0.57301261    -0.74100
O1286       O  0.97995869  0.03171348  0.64158098    -0.54700
C1287       C  0.98562891  0.06138673  0.61683106     0.76800
O1288       O  0.57092107  0.48052496  0.94026811    -0.59300
O1289       O  0.53371317  0.48826920  0.89985717    -0.52400
C1290       C  0.56263642  0.48376174  0.90328069     0.73400
Zr1291     Zr  0.54475534  0.48448195  0.51666619     2.54700
O1292       O  0.59277445  0.01994271  0.49097398    -0.79800
O1293       O  0.58042302  0.43780092  0.52023731    -0.93300
Zr1294     Zr  0.98894965  0.05280894  0.50914397     2.64700
O1295       O  0.54433022  0.08729218  0.46533524    -0.98200
O1296       O  0.96086842  0.10413441  0.50612956    -0.80300
O1297       O  0.51804351  0.02049437  0.55019531    -0.83600
O1298       O  0.52190115  0.02354524  0.96379362    -2.18300
O1299       O  0.96855516  0.39926927  0.00143641    -0.67000
O1300       O  0.97924541  0.44028624  0.93327135    -0.51600
C1301       C  0.97294725  0.41066919  0.95743668     0.71700
O1302       O  0.88552757  0.49137487  0.63614966    -0.59900
O1303       O  0.92298615  0.48720465  0.67519582    -0.51900
C1304       C  0.89389999  0.49004032  0.67241979     0.73500
O1305       O  0.89461694  0.50058758  0.98682078    -0.71300
O1306       O  0.93616523  0.49394764  0.92665656    -0.50000
C1307       C  0.90656092  0.49892565  0.94537918     0.74900
O1308       O  0.96981880  0.39167449  0.64717195    -0.66700
O1309       O  0.96888169  0.43043696  0.68208711    -0.53900
C1310       C  0.96877013  0.40084962  0.68241410     0.73300
Zr1311     Zr  0.97175626  0.41701308  0.56572857     2.77500
O1312       O  0.92600924  0.38038424  0.59784443    -0.97400
O1313       O  0.50962200  0.37983468  0.56334899    -0.78200
Zr1314     Zr  0.91214686  0.49194576  0.55639573     2.70100
O1315       O  0.86825864  0.45386293  0.58063613    -0.79500
O1316       O  0.88520354  0.04751863  0.54985444    -0.98600
Zr1317     Zr  0.97448123  0.48180928  0.62142086     2.21500
Zr1318     Zr  0.98310798  0.48835561  0.95381158     2.11100
O1319       O  0.94363446  0.45561427  0.51914657    -2.47200
O1320       O  0.93886471  0.45233373  0.60410892    -0.79300
O1321       O  0.51036653  0.45222091  0.00013106    -0.71500
O1322       O  0.94846205  0.02391493  0.57466068    -2.32400
O1323       O  0.50635865  0.45244884  0.58197904    -2.28600
O1324       O  0.95344355  0.02698539  0.98617147    -0.73200
H1325       H  0.53782375  0.03496739  0.93623308     0.78800
H1326       H  0.93640938  0.03828761  0.59130685     0.79900
H1327       H  0.92982232  0.44467694  0.50960178     0.82100
H1328       H  0.51738471  0.43713679  0.60202221     0.79700
H1329       H  0.97807179  0.12052693  0.49469614     0.42700
H1330       H  0.89530239  0.06118490  0.51798431     0.41700
H1331       H  0.84955592  0.46753645  0.57484518     0.41400
H1332       H  0.91021263  0.39125582  0.58094960     0.39300
H1333       H  0.49625019  0.36005533  0.57696099     0.42400
H1334       H  0.57568410  0.42724541  0.49940872     0.37200
H1335       H  0.59110173  0.03599985  0.46169156     0.43300
H1336       H  0.53725009  0.11294427  0.96322777     0.39800
H1337       H  0.93351040  0.36152808  0.58645959     0.44700
H1338       H  0.57171583  0.42273256  0.55160604     0.43400
H1339       H  0.55490901  0.08208626  0.49042518     0.43500
H1340       H  0.86331654  0.04314443  0.54983323     0.43900
C1341       C  0.94228834  0.36880212  0.95025369    -0.20000
C1342       C  0.97019396  0.38760057  0.93353614    -0.06600
C1343       C  0.49110038  0.38622881  0.89634314     0.14300
C1344       C  0.99390144  0.35582258  0.88155438    -0.20000
C1345       C  0.96715020  0.33539170  0.90126172    -0.06600
C1346       C  0.94033469  0.34283797  0.93412150     0.14300
C1347       C  0.90978193  0.32343915  0.95214792    -0.22100
H1348       H  0.92236231  0.37389422  0.97701613     0.15600
H1349       H  0.50768207  0.35574250  0.85221709     0.15600
C1350       C  0.52039608  0.40735183  0.87409002    -0.23300
H1351       H  0.89085725  0.33338970  0.97642196     0.05800
H1352       H  0.91424945  0.29803423  0.97081332     0.09100
H1353       H  0.90049031  0.32390849  0.92290276     0.09100
H1354       H  0.53276844  0.40572121  0.90064972     0.09000
H1355       H  0.51340652  0.43279900  0.85959965     0.09000
H1356       H  0.53744639  0.39970175  0.84556709     0.05800
C1357       C  0.94610035  0.34695281  0.80717001    -0.20000
C1358       C  0.97288348  0.32636390  0.80741689    -0.06600
C1359       C  0.99885709  0.33156782  0.76689024     0.14300
C1360       C  0.99611820  0.35512623  0.72620837    -0.20000
C1361       C  0.96916094  0.37537549  0.72586766    -0.06600
C1362       C  0.94415666  0.37174532  0.76710517     0.14300
C1363       C  0.91502922  0.39327546  0.76854830    -0.23400
H1364       H  0.92650849  0.34334180  0.83848279     0.15600
H1365       H  0.01587366  0.35874603  0.69496514     0.15600
C1366       C  0.03053619  0.31440829  0.76612197    -0.23300
H1367       H  0.89748597  0.38675161  0.80334732     0.05800
H1368       H  0.90302953  0.39077790  0.74345210     0.09100
H1369       H  0.92215880  0.41884440  0.75961019     0.09100
H1370       H  0.03535259  0.29973549  0.74193718     0.09000
H1371       H  0.52876658  0.30708904  0.80271984     0.09000
H1372       H  0.04998562  0.33255660  0.75403917     0.05800
C1373       C  0.51650546  0.10459512  0.80151587    -0.20000
C1374       C  0.98454689  0.09669209  0.85086094    -0.06600
C1375       C  0.96120898  0.12154923  0.85226792     0.14300
C1376       C  0.96030910  0.14562411  0.81120200    -0.20000
C1377       C  0.98335960  0.14693348  0.76924584    -0.06600
C1378       C  0.51823612  0.12993108  0.76053927     0.14300
C1379       C  0.54775317  0.13192822  0.72066895    -0.23400
H1380       H  0.53511028  0.08621940  0.80239327     0.15600
H1381       H  0.94144449  0.16364496  0.81171541     0.15600
C1382       C  0.93716076  0.12301274  0.89675067    -0.23300
H1383       H  0.56946694  0.13158586  0.73241375     0.05800
H1384       H  0.54873071  0.15456894  0.69193884     0.09100
H1385       H  0.54866477  0.11082213  0.70783618     0.09100
H1386       H  0.94974577  0.12825297  0.91943016     0.09000
H1387       H  0.92420945  0.09973851  0.91485893     0.09000
H1388       H  0.91913047  0.14246521  0.89067194     0.05800
C1389       C  0.51874723  0.13862157  0.63261227    -0.20000
C1390       C  0.98098419  0.13783204  0.67648288    -0.06600
C1391       C  0.95806768  0.11267163  0.69729560     0.14300
C1392       C  0.96143371  0.08662905  0.67904229    -0.20000
C1393       C  0.98660783  0.08575555  0.63989117    -0.06600
C1394       C  0.51958318  0.11300453  0.61468504     0.14300
C1395       C  0.54851817  0.10931947  0.57653424    -0.23400
H1396       H  0.53844879  0.15573014  0.61816345     0.15600
H1397       H  0.94332215  0.06782756  0.69373420     0.15600
C1398       C  0.92898884  0.11415455  0.73645678    -0.23300
H1399       H  0.56795058  0.12642329  0.57010369     0.05800
H1400       H  0.54182918  0.11445820  0.54388802     0.09100
H1401       H  0.55828039  0.08443303  0.58585361     0.09100
H1402       H  0.91591406  0.13723983  0.72668205     0.09000
H1403       H  0.93628478  0.11215486  0.76776635     0.09000
H1404       H  0.91211387  0.09399508  0.74542359     0.05800
C1405       C  0.00472596  0.23868717  0.80120633    -0.20000
C1406       C  0.97616015  0.25270597  0.82107395    -0.06600
C1407       C  0.94769373  0.24947194  0.81028213     0.14300
C1408       C  0.94875182  0.23332399  0.77811614    -0.20000
C1409       C  0.97745196  0.21985457  0.75746843    -0.06600
C1410       C  0.51109492  0.22996366  0.76395230     0.14300
C1411       C  0.54393080  0.21689574  0.74615068    -0.23400
H1412       H  0.52572210  0.24834939  0.81072084     0.15600
H1413       H  0.92704022  0.23084458  0.76933799     0.15600
C1414       C  0.91605716  0.26198340  0.83386614    -0.23300
H1415       H  0.56168352  0.22295658  0.76129032     0.05800
H1416       H  0.55249963  0.22737060  0.70802280     0.09100
H1417       H  0.54304688  0.19023513  0.75526255     0.09100
H1418       H  0.91701068  0.28858533  0.82552387     0.09000
H1419       H  0.91070917  0.25085911  0.87186708     0.09000
H1420       H  0.89598431  0.25616159  0.82270127     0.05800
C1421       C  0.83977294  0.53038954  0.89083222    -0.20000
C1422       C  0.83215232  0.50265474  0.88267572    -0.06600
C1423       C  0.85178363  0.47483591  0.88971017     0.14300
C1424       C  0.87790961  0.47513922  0.90687698    -0.20000
C1425       C  0.88399974  0.50218736  0.91806618    -0.06600
C1426       C  0.86577857  0.53058579  0.90800430     0.14300
C1427       C  0.87401735  0.56109566  0.91493700    -0.23400
H1428       H  0.82462866  0.55164155  0.88514315     0.15600
H1429       H  0.89220039  0.45341037  0.91458711     0.15600
C1430       C  0.84466721  0.44383460  0.88280025    -0.23300
H1431       H  0.85782766  0.58138555  0.90399187     0.05800
H1432       H  0.90300632  0.06702496  0.88233595     0.09100
H1433       H  0.87813669  0.55914644  0.44565047     0.09100
H1434       H  0.86483872  0.43812374  0.85553795     0.09000
H1435       H  0.82226580  0.44490247  0.87264123     0.09000
H1436       H  0.84201454  0.42377944  0.91552166     0.05800
C1437       C  0.86785773  0.51931531  0.72936146    -0.20000
C1438       C  0.86821538  0.49249916  0.71375869    -0.06600
C1439       C  0.84380922  0.46897808  0.73729766     0.14300
C1440       C  0.82065094  0.47196692  0.77727951    -0.20000
C1441       C  0.82012156  0.49885824  0.79288952    -0.06600
C1442       C  0.84337934  0.52344295  0.76740495     0.14300
C1443       C  0.84207028  0.05336789  0.77946908    -0.23400
H1444       H  0.88688682  0.03620269  0.71355774     0.15600
H1445       H  0.80283931  0.45318678  0.79658377     0.15600
C1446       C  0.84228311  0.44062703  0.72049412    -0.23300
H1447       H  0.84228137  0.07362964  0.74767603     0.05800
H1448       H  0.86328794  0.05574303  0.79084889     0.09100
H1449       H  0.81977261  0.05594050  0.80598168     0.09100
H1450       H  0.86519771  0.42706034  0.71813145     0.09000
H1451       H  0.83807677  0.44933931  0.68581413     0.09000
H1452       H  0.82252063  0.42378366  0.74402183     0.05800
C1453       C  0.63133683  0.50439026  0.79233588    -0.20000
C1454       C  0.63617770  0.47453936  0.78306783    -0.06600
C1455       C  0.61491495  0.94987130  0.80462906     0.14300
C1456       C  0.59091923  0.95469978  0.84250846    -0.20000
C1457       C  0.58822155  0.48144805  0.86184761    -0.06600
C1458       C  0.60727744  0.50824515  0.83113907     0.14300
C1459       C  0.60195003  0.54083579  0.83915252    -0.23400
H1460       H  0.64599843  0.52484422  0.76847957     0.15600
H1461       H  0.57383585  0.93566807  0.86362701     0.15600
C1462       C  0.61590088  0.91760269  0.79623440    -0.23300
H1463       H  0.61880058  0.55924957  0.81182966     0.05800
H1464       H  0.61607017  0.03151875  0.87704453     0.09100
H1465       H  0.57704946  0.54914812  0.83918601     0.09100
H1466       H  0.61627692  0.89795896  0.82841451     0.09000
H1467       H  0.64118411  0.41344389  0.77741841     0.09000
H1468       H  0.59418444  0.91478553  0.78620478     0.05800
C1469       C  0.60150169  0.48905246  0.69984408    -0.20000
C1470       C  0.62384248  0.46391694  0.69690407    -0.06600
C1471       C  0.62250228  0.94027059  0.67086303     0.14300
C1472       C  0.59673918  0.94380555  0.65185513    -0.20000
C1473       C  0.57320627  0.47100925  0.65638547    -0.06600
C1474       C  0.57580400  0.49260248  0.68036008     0.14300
C1475       C  0.55287379  0.52051182  0.68286266    -0.23400
H1476       H  0.60536687  0.50723177  0.71446486     0.15600
H1477       H  0.59391252  0.92666172  0.63479742     0.15600
C1478       C  0.64387451  0.91107089  0.66967230    -0.23300
H1479       H  0.55925141  0.53575402  0.70128037     0.05800
H1480       H  0.52816592  0.51125330  0.70180223     0.09100
H1481       H  0.55328433  0.53598495  0.64748765     0.09100
H1482       H  0.65673362  0.40768300  0.69917255     0.09000
H1483       H  0.65599563  0.91204095  0.63327061     0.09000
H1484       H  0.62904718  0.88880069  0.68682743     0.05800
C1485       C  0.72517195  0.01114393  0.74706781    -0.20000
C1486       C  0.70942625  0.48123344  0.76199189    -0.06600
C1487       C  0.71659282  0.45559417  0.79790421     0.14300
C1488       C  0.73479740  0.46187656  0.82390935    -0.20000
C1489       C  0.74680363  0.49286005  0.81354418    -0.06600
C1490       C  0.74295106  0.01731705  0.77380536     0.14300
C1491       C  0.75732550  0.05029775  0.76055978    -0.23400
H1492       H  0.72254636  0.02984635  0.71635292     0.15600
H1493       H  0.73995057  0.44253227  0.85226261     0.15600
C1494       C  0.70580107  0.42156443  0.80811126    -0.23300
H1495       H  0.75118913  0.06712113  0.72969142     0.05800
H1496       H  0.78381463  0.04844844  0.75228912     0.09100
H1497       H  0.74815201  0.06080113  0.78955454     0.09100
H1498       H  0.71492079  0.41359624  0.77671185     0.09000
H1499       H  0.67930647  0.42057939  0.81939619     0.09000
H1500       H  0.71471985  0.40432382  0.83614017     0.05800
N1501       N  0.66099792  0.48244384  0.23578732    -0.03200
C1502       C  0.65638258  0.47823587  0.19759199    -0.00600
C1503       C  0.68772382  0.98471147  0.15614995    -0.23500
C1504       C  0.71099090  0.98842225  0.17543726    -0.23700
C1505       C  0.69528461  0.98783890  0.22018199    -0.00700
H1506       H  0.69146085  0.98396192  0.12125560     0.13100
H1507       H  0.73657563  0.99063386  0.15904242     0.13200
N1508       N  0.79662436  0.99441931  0.33667188    -0.03200
C1509       C  0.80167494  0.99261556  0.37756473    -0.00600
C1510       C  0.77311290  0.98773473  0.41242101    -0.23500
C1511       C  0.74951875  0.98582138  0.39278736    -0.23700
C1512       C  0.76460061  0.98994383  0.34672569    -0.00700
H1513       H  0.76987450  0.98589392  0.44825800     0.13100
H1514       H  0.72413727  0.98211123  0.41000283     0.13200
N1515       N  0.97989272  0.66952725  0.22981716    -0.03200
C1516       C  0.97901565  0.66471511  0.18999805    -0.00600
C1517       C  0.97406241  0.69354004  0.15855017    -0.23500
C1518       C  0.97099040  0.71698933  0.17995911    -0.23700
C1519       C  0.97466328  0.70170837  0.22346751    -0.00700
H1520       H  0.97237244  0.69698167  0.12401700     0.13100
H1521       H  0.96638273  0.74242187  0.16552222     0.13200
N1522       N  0.95949999  0.80298333  0.35093162    -0.03200
C1523       C  0.95578016  0.80547783  0.39362956    -0.00600
C1524       C  0.95548109  0.77507730  0.42506034    -0.23500
C1525       C  0.95840958  0.75310611  0.40110541    -0.23700
C1526       C  0.96052131  0.77081771  0.35588729    -0.00700
H1527       H  0.95432210  0.76949004  0.46120011     0.13100
H1528       H  0.95927758  0.72705159  0.41498356     0.13200
O1529       O  0.56361857  0.97955681  0.07996079    -0.75000
O1530       O  0.52231814  0.98546219  0.14073999    -0.53900
C1531       C  0.55205438  0.98139048  0.12141074     0.78800
O1532       O  0.98172878  0.57710243  0.43275239    -0.59600
O1533       O  0.98655528  0.53950664  0.39488980    -0.52600
C1534       C  0.98351582  0.56882444  0.39671644     0.70800
O1535       O  0.98935777  0.57100487  0.07319126    -0.74100
O1536       O  0.97880173  0.53019087  0.14137720    -0.54700
C1537       C  0.98540702  0.55973121  0.11699843     0.76800
O1538       O  0.57511905  0.98496325  0.43304781    -0.59300
O1539       O  0.53796898  0.99113661  0.39294876    -0.52400
C1540       C  0.56693850  0.98776825  0.39612697     0.73400
Zr1541     Zr  0.54573430  0.98174064  0.01294974     2.54700
O1542       O  0.58921799  0.51967976  0.98806747    -0.79800
O1543       O  0.57033559  0.92831162  0.02384462    -0.93300
Zr1544     Zr  0.98748519  0.55197712  0.00993893     2.64700
O1545       O  0.53391045  0.58819061  0.97336105    -0.98200
O1546       O  0.95845897  0.60277660  0.00667399    -0.80300
O1547       O  0.51311929  0.51758833  0.05765126    -0.83600
O1548       O  0.51715665  0.52381703  0.46989013    -2.18300
O1549       O  0.96623093  0.89899992  0.50428620    -0.67000
O1550       O  0.97647610  0.93960009  0.43574796    -0.51600
C1551       C  0.96966677  0.91007055  0.46048111     0.71700
O1552       O  0.88470503  0.99620128  0.13066738    -0.59900
O1553       O  0.92151006  0.99156086  0.17086866    -0.51900
C1554       C  0.89260050  0.99448565  0.16743990     0.73500
O1555       O  0.89451271  0.00180802  0.48867559    -0.71300
O1556       O  0.93556774  0.99620702  0.42752229    -0.50000
C1557       C  0.90596488  0.00087475  0.44686950     0.74900
O1558       O  0.96380164  0.89455438  0.14691483    -0.66700
O1559       O  0.96370690  0.93345910  0.18126159    -0.53900
C1560       C  0.96227439  0.90388767  0.18218413     0.73300
Zr1561     Zr  0.96813323  0.91970644  0.06469033     2.77500
O1562       O  0.91990521  0.88651024  0.09589134    -0.97400
O1563       O  0.50265242  0.88142393  0.06204301    -0.78200
Zr1564     Zr  0.91266901  0.99805534  0.05081455     2.70100
O1565       O  0.86321142  0.96764606  0.07434153    -0.79500
O1566       O  0.87880289  0.54297447  0.05118204    -0.98600
Zr1567     Zr  0.97324437  0.98427466  0.11921622     2.21500
Zr1568     Zr  0.98293237  0.98833930  0.45430769     2.11100
O1569       O  0.94264022  0.95970777  0.01607902    -2.47200
O1570       O  0.93670965  0.95694927  0.10053850    -0.79300
O1571       O  0.51235985  0.95507189  0.49432483    -0.71500
O1572       O  0.94668218  0.52272099  0.07463759    -2.32400
O1573       O  0.50498745  0.95370261  0.07839033    -2.28600
O1574       O  0.95104325  0.52336114  0.49128067    -0.73200
H1575       H  0.53197525  0.53660991  0.44207586     0.78800
H1576       H  0.93454201  0.53711611  0.09118936     0.79900
H1577       H  0.92853598  0.94914670  0.00650677     0.82100
H1578       H  0.51496158  0.93791298  0.09945582     0.79700
H1579       H  0.93561136  0.59635990  0.02044636     0.42700
H1580       H  0.89087067  0.55912345  0.02267241     0.41700
H1581       H  0.87039494  0.94508227  0.07674974     0.41400
H1582       H  0.90686943  0.89392791  0.12215850     0.39300
H1583       H  0.48874257  0.86295817  0.08335184     0.42400
H1584       H  0.57287955  0.92193865  0.05545052     0.37200
H1585       H  0.59956921  0.51599582  0.01316105     0.43300
H1586       H  0.52660493  0.61254595  0.47444374     0.39800
H1587       H  0.90802044  0.89432120  0.07225723     0.44700
H1588       H  0.59250808  0.93225249  0.00325463     0.43400
H1589       H  0.54842778  0.57858473  0.99299190     0.43500
H1590       H  0.85964576  0.53800772  0.04373726     0.43900
C1591       C  0.93637873  0.86842747  0.45701523    -0.20000
C1592       C  0.96469689  0.88677139  0.43780369    -0.06600
C1593       C  0.49315610  0.89054964  0.38932640     0.14300
C1594       C  0.98392318  0.85526470  0.38402954    -0.20000
C1595       C  0.95639701  0.83580005  0.40505951    -0.06600
C1596       C  0.93177841  0.84324483  0.44076184     0.14300
C1597       C  0.90048146  0.82495757  0.46136683    -0.22100
H1598       H  0.91798454  0.87352428  0.48544214     0.15600
H1599       H  0.50854508  0.86020242  0.34472837     0.15600
C1600       C  0.52332619  0.91035185  0.36792072    -0.23300
H1601       H  0.88334786  0.83502956  0.48728033     0.05800
H1602       H  0.90452369  0.79921552  0.47897305     0.09100
H1603       H  0.88916471  0.82655936  0.43360644     0.09100
H1604       H  0.53575408  0.90740359  0.39487579     0.09000
H1605       H  0.51747458  0.93621531  0.35377323     0.09000
H1606       H  0.53995829  0.90252923  0.33923212     0.05800
C1607       C  0.93452818  0.85003925  0.30674558    -0.20000
C1608       C  0.96104154  0.82929476  0.30922024    -0.06600
C1609       C  0.98839776  0.83443417  0.27060415     0.14300
C1610       C  0.98756900  0.85834514  0.22932663    -0.20000
C1611       C  0.96077424  0.87850235  0.22639521    -0.06600
C1612       C  0.93406896  0.87464614  0.26573043     0.14300
C1613       C  0.90459751  0.89536170  0.26381993    -0.23400
H1614       H  0.91380462  0.84626030  0.33672274     0.15600
H1615       H  0.00846690  0.86199696  0.19954483     0.15600
C1616       C  0.01936687  0.81639246  0.27255611    -0.23300
H1617       H  0.88585511  0.88908090  0.29756041     0.05800
H1618       H  0.89443742  0.89153755  0.23765702     0.09100
H1619       H  0.91081317  0.92125315  0.25435493     0.09100
H1620       H  0.02511830  0.80201317  0.24791061     0.09000
H1621       H  0.52370031  0.80705993  0.29321730     0.09000
H1622       H  0.03905795  0.83395508  0.26269687     0.05800
C1623       C  0.50397838  0.60364444  0.31187834    -0.20000
C1624       C  0.98229806  0.59519981  0.35436949    -0.06600
C1625       C  0.95910456  0.62025922  0.35488387     0.14300
C1626       C  0.95840501  0.64385061  0.31324545    -0.20000
C1627       C  0.98206673  0.64500419  0.27186735    -0.06600
C1628       C  0.50470955  0.62848010  0.27074076     0.14300
C1629       C  0.53390360  0.63072843  0.23033714    -0.23400
H1630       H  0.52313520  0.58585607  0.31238620     0.15600
H1631       H  0.93947791  0.66181392  0.31299452     0.15600
C1632       C  0.93548164  0.62289157  0.39906408    -0.23300
H1633       H  0.55581110  0.63129954  0.24123804     0.05800
H1634       H  0.53413622  0.65307622  0.20139897     0.09100
H1635       H  0.53514693  0.60926945  0.21815215     0.09100
H1636       H  0.94849619  0.62908534  0.42055292     0.09000
H1637       H  0.92263144  0.59979166  0.41892921     0.09000
H1638       H  0.91738399  0.64216337  0.39236783     0.05800
C1639       C  0.50628163  0.63698578  0.14165935    -0.20000
C1640       C  0.98318647  0.63376127  0.17931973    -0.06600
C1641       C  0.95902746  0.60983562  0.19839156     0.14300
C1642       C  0.96157186  0.58446160  0.17920833    -0.20000
C1643       C  0.98722353  0.58305628  0.14097314    -0.06600
C1644       C  0.50981165  0.61116988  0.12341826     0.14300
C1645       C  0.53933779  0.60983483  0.08464963    -0.23400
H1646       H  0.52404978  0.65613651  0.12655454     0.15600
H1647       H  0.94247613  0.56674374  0.19228399     0.15600
C1648       C  0.92958191  0.61199858  0.23663980    -0.23300
H1649       H  0.55665351  0.62928447  0.07737118     0.05800
H1650       H  0.53272988  0.61305222  0.05240114     0.09100
H1651       H  0.55180652  0.58636476  0.09389082     0.09100
H1652       H  0.91756002  0.63571412  0.22671497     0.09000
H1653       H  0.93629843  0.60892477  0.26874023     0.09000
H1654       H  0.91199683  0.59274237  0.24428985     0.05800
C1655       C  0.99353401  0.73999567  0.30522594    -0.20000
C1656       C  0.96442160  0.75566083  0.31903386    -0.06600
C1657       C  0.93853953  0.75283819  0.30222424     0.14300
C1658       C  0.94256257  0.73465245  0.27153153    -0.20000
C1659       C  0.97166263  0.71889336  0.25786375    -0.06600
C1660       C  0.49935521  0.72883178  0.26568191     0.14300
C1661       C  0.53121042  0.71504638  0.24535160    -0.23400
H1662       H  0.51850446  0.74852705  0.30700524     0.15600
H1663       H  0.92278780  0.73240142  0.25841500     0.15600
C1664       C  0.90638232  0.76790612  0.31786703    -0.23300
H1665       H  0.55084546  0.72229411  0.25604168     0.05800
H1666       H  0.53736963  0.72388089  0.20704131     0.09100
H1667       H  0.53020125  0.68836634  0.25718997     0.09100
H1668       H  0.90876707  0.79452466  0.30713236     0.09000
H1669       H  0.89701847  0.75864184  0.35605511     0.09000
H1670       H  0.88850038  0.76226129  0.30258564     0.05800
C1671       C  0.83298740  0.02332898  0.40271641    -0.20000
C1672       C  0.83214943  0.99762068  0.38545657    -0.06600
C1673       C  0.85792482  0.97545147  0.38296917     0.14300
C1674       C  0.88346551  0.97911433  0.39945150    -0.20000
C1675       C  0.88281649  0.00321318  0.42042790    -0.06600
C1676       C  0.85787326  0.02634701  0.42054189     0.14300
C1677       C  0.85715378  0.05414844  0.43946016    -0.23400
H1678       H  0.81313900  0.04032473  0.40420244     0.15600
H1679       H  0.90264737  0.96134337  0.39949915     0.15600
C1680       C  0.85820850  0.94633627  0.36691046    -0.23300
H1681       H  0.83691534  0.07094535  0.43384075     0.05800
H1682       H  0.90368210  0.56723018  0.38677870     0.09100
H1683       H  0.87660179  0.05973427  0.94050741     0.09100
H1684       H  0.87860212  0.94821364  0.33552346     0.09000
H1685       H  0.83574297  0.94354372  0.35892691     0.09000
H1686       H  0.86121107  0.92406810  0.39449066     0.05800
C1687       C  0.86664514  0.02001750  0.22912571    -0.20000
C1688       C  0.86660742  0.99545749  0.20923441    -0.06600
C1689       C  0.84265711  0.97138482  0.23077552     0.14300
C1690       C  0.82048119  0.97144458  0.27292379    -0.20000
C1691       C  0.82019987  0.99604440  0.29295691    -0.06600
C1692       C  0.84305613  0.02129853  0.26974287     0.14300
C1693       C  0.84289614  0.55640070  0.27862319    -0.23400
H1694       H  0.88619210  0.53906327  0.21109919     0.15600
H1695       H  0.80333624  0.95191630  0.29071620     0.15600
C1696       C  0.84071938  0.94530111  0.20980312    -0.23300
H1697       H  0.84310483  0.57679733  0.24697858     0.05800
H1698       H  0.86437805  0.55822249  0.28974993     0.09100
H1699       H  0.82098717  0.55927713  0.30553765     0.09100
H1700       H  0.86398939  0.93247015  0.20362811     0.09000
H1701       H  0.83498823  0.95627690  0.17636157     0.09000
H1702       H  0.82176971  0.92728373  0.23255379     0.05800
C1703       C  0.63737144  0.01102507  0.28802295    -0.20000
C1704       C  0.63931704  0.98406903  0.27200527    -0.06600
C1705       C  0.61633716  0.45696982  0.30540794     0.14300
C1706       C  0.59231111  0.45978135  0.34456591    -0.20000
C1707       C  0.59262430  0.98691796  0.35413343    -0.06600
C1708       C  0.61459474  0.01254954  0.32914634     0.14300
C1709       C  0.61377277  0.04157444  0.34554641    -0.23400
H1710       H  0.65367118  0.03105374  0.26798125     0.15600
H1711       H  0.57729202  0.43923436  0.36616107     0.15600
C1712       C  0.61958716  0.42503964  0.29554233    -0.23300
H1713       H  0.63232617  0.05963999  0.32154057     0.05800
H1714       H  0.60940654  0.54034395  0.37804502     0.09100
H1715       H  0.58987577  0.05342522  0.34818470     0.09100
H1716       H  0.62166950  0.40528747  0.32677185     0.09000
H1717       H  0.64094788  0.92594801  0.25716754     0.09000
H1718       H  0.59798844  0.42072935  0.28634570     0.05800
C1719       C  0.60400548  0.00090701  0.18671923    -0.20000
C1720       C  0.62789711  0.97727382  0.18269098    -0.06600
C1721       C  0.62134509  0.44869264  0.17300565     0.14300
C1722       C  0.59526333  0.45008810  0.15542435    -0.20000
C1723       C  0.57521187  0.97849731  0.14814575    -0.06600
C1724       C  0.57742346  0.00173335  0.16981207     0.14300
C1725       C  0.55309508  0.02851042  0.17249350    -0.23400
H1726       H  0.60714147  0.01985045  0.20051173     0.15600
H1727       H  0.59317739  0.43219466  0.13914852     0.15600
C1728       C  0.64415469  0.42054331  0.17158519    -0.23300
H1729       H  0.55938731  0.04536528  0.18864807     0.05800
H1730       H  0.52912708  0.01813575  0.19364571     0.09100
H1731       H  0.55180610  0.04263198  0.13726291     0.09100
H1732       H  0.66610669  0.92420904  0.18014871     0.09000
H1733       H  0.65574991  0.42127700  0.13514642     0.09000
H1734       H  0.63053028  0.39759001  0.18999065     0.05800
C1735       C  0.71973445  0.52144311  0.25175598    -0.20000
C1736       C  0.71198551  0.98810733  0.25388817    -0.06600
C1737       C  0.72015213  0.95898894  0.28362488     0.14300
C1738       C  0.73744751  0.96030127  0.31376743    -0.20000
C1739       C  0.74734927  0.98998614  0.31354749    -0.06600
C1740       C  0.73828499  0.52614830  0.27846309     0.14300
C1741       C  0.74873318  0.55972403  0.27187238    -0.23400
H1742       H  0.71309883  0.54194225  0.22612291     0.15600
H1743       H  0.74366369  0.93813915  0.33719887     0.15600
C1744       C  0.71121855  0.92663956  0.28288404    -0.23300
H1745       H  0.73982748  0.57812352  0.24483424     0.05800
H1746       H  0.77535391  0.56093277  0.26125734     0.09100
H1747       H  0.73926418  0.56585984  0.30471820     0.09100
H1748       H  0.72166429  0.92412326  0.24777018     0.09000
H1749       H  0.68475275  0.92458850  0.29246089     0.09000
H1750       H  0.72024393  0.90634289  0.30767143     0.05800
N1751       N  0.66013140  0.47203038  0.74179427    -0.03200
C1752       C  0.65520273  0.46656870  0.70454813    -0.00600
C1753       C  0.68773955  0.96755135  0.66609850    -0.23500
C1754       C  0.71064822  0.97300223  0.68478540    -0.23700
C1755       C  0.69449050  0.97517063  0.72812679    -0.00700
H1756       H  0.69186825  0.96539285  0.63183617     0.13100
H1757       H  0.73624107  0.97539451  0.66849561     0.13200
N1758       N  0.79577857  0.99888819  0.83522380    -0.03200
C1759       C  0.80065758  0.00032422  0.87474844    -0.00600
C1760       C  0.77187742  0.00105221  0.90751561    -0.23500
C1761       C  0.74815397  0.99913774  0.88796158    -0.23700
C1762       C  0.76348818  0.99773976  0.84390129    -0.00700
H1763       H  0.76859427  0.00201858  0.94220685     0.13100
H1764       H  0.72255242  0.99819173  0.90431998     0.13200
N1765       N  0.98345031  0.67035792  0.72723678    -0.03200
C1766       C  0.97988024  0.66558738  0.68867985    -0.00600
C1767       C  0.97457832  0.69457739  0.65778885    -0.23500
C1768       C  0.97401033  0.71810713  0.67825989    -0.23700
C1769       C  0.97948737  0.70270833  0.72061358    -0.00700
H1770       H  0.97115909  0.69810325  0.62415442     0.13100
H1771       H  0.96960357  0.74363150  0.66415958     0.13200
N1772       N  0.96820626  0.80104137  0.84988838    -0.03200
C1773       C  0.96312711  0.80371034  0.89275532    -0.00600
C1774       C  0.96205763  0.77342329  0.92471037    -0.23500
C1775       C  0.96588530  0.75127896  0.90079442    -0.23700
C1776       C  0.96933181  0.76885426  0.85514943    -0.00700
H1777       H  0.95944951  0.76800657  0.96126235     0.13100
H1778       H  0.96588050  0.72521888  0.91513262     0.13200
O1779       O  0.56471736  0.97503612  0.58295639    -0.75000
O1780       O  0.52290956  0.98071210  0.64331158    -0.53900
C1781       C  0.55258882  0.97546353  0.62494719     0.78800
O1782       O  0.98481779  0.57826384  0.93123485    -0.59600
O1783       O  0.98731323  0.54054209  0.89424861    -0.52600
C1784       C  0.98588377  0.56995332  0.89540637     0.70800
O1785       O  0.98893753  0.57026135  0.57332545    -0.74100
O1786       O  0.97858250  0.53000118  0.64195178    -0.54700
C1787       C  0.98501043  0.55950935  0.61716045     0.76800
O1788       O  0.57259376  0.98360258  0.93278779    -0.59300
O1789       O  0.53510513  0.98961455  0.89325365    -0.52400
C1790       C  0.56414285  0.98578224  0.89629980     0.73400
Zr1791     Zr  0.54803902  0.98311755  0.51332364     2.54700
O1792       O  0.58902949  0.52221049  0.49193499    -0.79800
O1793       O  0.58427632  0.93691556  0.51464310    -0.93300
Zr1794     Zr  0.98678164  0.55126441  0.51005815     2.64700
O1795       O  0.53337791  0.59062120  0.47235835    -0.98200
O1796       O  0.95691168  0.60150323  0.50844932    -0.80300
O1797       O  0.51311209  0.52013081  0.55536574    -0.83600
O1798       O  0.51769535  0.52111587  0.97217938    -2.18300
O1799       O  0.96629425  0.90027957  0.00118096    -0.67000
O1800       O  0.97943563  0.94011373  0.93192307    -0.51600
C1801       C  0.97161407  0.91088643  0.95693285     0.71700
O1802       O  0.88585530  0.99221149  0.63642939    -0.59900
O1803       O  0.92343564  0.98794047  0.67527465    -0.51900
C1804       C  0.89426352  0.99025963  0.67280854     0.73500
O1805       O  0.89618656  0.00217070  0.98225476    -0.71300
O1806       O  0.93765868  0.99366352  0.92335470    -0.50000
C1807       C  0.90808694  0.99914438  0.94158008     0.74900
O1808       O  0.96895315  0.89332651  0.64744900    -0.66700
O1809       O  0.96852587  0.93204735  0.68224087    -0.53900
C1810       C  0.96799568  0.90247948  0.68266036     0.73300
Zr1811     Zr  0.97030887  0.91879282  0.56630194     2.77500
O1812       O  0.92299218  0.88426392  0.59996395    -0.97400
O1813       O  0.50519660  0.87897021  0.56508476    -0.78200
Zr1814     Zr  0.91296092  0.99582613  0.55612475     2.70100
O1815       O  0.86398276  0.96456814  0.58022937    -0.79500
O1816       O  0.87543825  0.53783372  0.55286870    -0.98600
Zr1817     Zr  0.97524615  0.98336251  0.62131473     2.21500
Zr1818     Zr  0.98425332  0.98871717  0.95126107     2.11100
O1819       O  0.94276291  0.95820991  0.51989359    -2.47200
O1820       O  0.93876455  0.95514068  0.60387516    -0.79300
O1821       O  0.50900734  0.95541414  0.99358678    -0.71500
O1822       O  0.94664111  0.52141962  0.57497277    -2.32400
O1823       O  0.50753852  0.95321041  0.57826380    -2.28600
O1824       O  0.95115438  0.52504623  0.99078256    -0.73200
H1825       H  0.53278964  0.53361377  0.94442526     0.78800
H1826       H  0.93422770  0.53565924  0.59159518     0.79900
H1827       H  0.92839587  0.94767034  0.51071974     0.82100
H1828       H  0.51743314  0.93734344  0.59934170     0.79700
H1829       H  0.93776983  0.59555224  0.53546688     0.42700
H1830       H  0.88763765  0.55572593  0.52710844     0.41700
H1831       H  0.87154210  0.94212210  0.58245128     0.41400
H1832       H  0.91040979  0.89133345  0.62677260     0.39300
H1833       H  0.52526874  0.88597000  0.56799591     0.42400
H1834       H  0.58456537  0.92751724  0.54725793     0.37200
H1835       H  0.58511567  0.53941994  0.46500661     0.43300
H1836       H  0.52781187  0.60948472  0.97840041     0.39800
H1837       H  0.91023992  0.89170242  0.57738378     0.44700
H1838       H  0.60586459  0.94658125  0.49832313     0.43400
H1839       H  0.54673984  0.58256733  0.49404890     0.43500
H1840       H  0.85846645  0.53252708  0.54125463     0.43900
C1841       C  0.93991179  0.86837474  0.95290089    -0.20000
C1842       C  0.96782292  0.88729212  0.93408455    -0.06600
C1843       C  0.48725694  0.88776555  0.89590811     0.14300
C1844       C  0.98943887  0.85459679  0.88252822    -0.20000
C1845       C  0.96252255  0.83431914  0.90379949    -0.06600
C1846       C  0.93680262  0.84213256  0.93788314     0.14300
C1847       C  0.90594484  0.82313443  0.95811823    -0.22100
H1848       H  0.92075214  0.87372973  0.98033207     0.15600
H1849       H  0.50124647  0.85383634  0.85669411     0.15600
C1850       C  0.51982847  0.90325680  0.87794556    -0.23300
H1851       H  0.88773022  0.83388946  0.98217268     0.05800
H1852       H  0.91026109  0.79795442  0.97775727     0.09100
H1853       H  0.89578682  0.82293782  0.92993972     0.09100
H1854       H  0.53012692  0.89988384  0.90724074     0.09000
H1855       H  0.51772160  0.92946249  0.86044819     0.09000
H1856       H  0.53667533  0.89243270  0.85267209     0.05800
C1857       C  0.94312753  0.84879131  0.80730987    -0.20000
C1858       C  0.96918908  0.82727361  0.80818335    -0.06600
C1859       C  0.99555517  0.83186665  0.76822299     0.14300
C1860       C  0.99389346  0.85586113  0.72737034    -0.20000
C1861       C  0.96759328  0.87695626  0.72633808    -0.06600
C1862       C  0.94216263  0.87379659  0.76699315     0.14300
C1863       C  0.91346185  0.89588892  0.76735952    -0.23400
H1864       H  0.92317584  0.84550885  0.83819333     0.15600
H1865       H  0.01391196  0.85900696  0.69651752     0.15600
C1866       C  0.02652124  0.81345458  0.76824994    -0.23300
H1867       H  0.89536572  0.88956877  0.80168930     0.05800
H1868       H  0.90195827  0.89378477  0.74152014     0.09100
H1869       H  0.92097553  0.92129346  0.75875110     0.09100
H1870       H  0.03087044  0.79881139  0.74408191     0.09000
H1871       H  0.51464494  0.80616214  0.80803778     0.09000
H1872       H  0.04665709  0.83078140  0.75656197     0.05800
C1873       C  0.50430794  0.60110631  0.81452678    -0.20000
C1874       C  0.98535755  0.59631234  0.85260841    -0.06600
C1875       C  0.96283880  0.62193930  0.85272553     0.14300
C1876       C  0.96265028  0.64561627  0.81094893    -0.20000
C1877       C  0.98566034  0.64582404  0.76936585    -0.06600
C1878       C  0.50598192  0.62676676  0.77401200     0.14300
C1879       C  0.53597133  0.62953049  0.73461367    -0.23400
H1880       H  0.52304267  0.58286057  0.81486250     0.15600
H1881       H  0.94425753  0.66412001  0.81063762     0.15600
C1882       C  0.93880050  0.62456556  0.89658721    -0.23300
H1883       H  0.55728821  0.62914036  0.74725595     0.05800
H1884       H  0.53712594  0.65247697  0.70635240     0.09100
H1885       H  0.53757576  0.60876064  0.72088370     0.09100
H1886       H  0.95150154  0.62978835  0.91916212     0.09000
H1887       H  0.92517144  0.60173529  0.91528113     0.09000
H1888       H  0.92134353  0.64446290  0.88959258     0.05800
C1889       C  0.51041859  0.63713462  0.64164133    -0.20000
C1890       C  0.98331011  0.63480336  0.67760296    -0.06600
C1891       C  0.95955086  0.61047024  0.69802459     0.14300
C1892       C  0.96203777  0.58462508  0.67962495    -0.20000
C1893       C  0.98692177  0.58347103  0.64030773    -0.06600
C1894       C  0.51221983  0.61236750  0.62171116     0.14300
C1895       C  0.54061510  0.61128218  0.58134744    -0.23400
H1896       H  0.52889180  0.65558868  0.62692434     0.15600
H1897       H  0.94335019  0.56640588  0.69408105     0.15600
C1898       C  0.93048453  0.61280340  0.73672554    -0.23300
H1899       H  0.55896943  0.62963961  0.57449932     0.05800
H1900       H  0.53276878  0.61639124  0.54961830     0.09100
H1901       H  0.55219368  0.58713917  0.58848444     0.09100
H1902       H  0.91785491  0.63607129  0.72618273     0.09000
H1903       H  0.93774809  0.61113226  0.76797303     0.09000
H1904       H  0.91324990  0.59289048  0.74608351     0.05800
C1905       C  0.00122053  0.73862738  0.80262200    -0.20000
C1906       C  0.97220073  0.75375370  0.81860572    -0.06600
C1907       C  0.94568913  0.75176955  0.80261803     0.14300
C1908       C  0.94885196  0.73468129  0.77086851    -0.20000
C1909       C  0.97787103  0.71965844  0.75476641    -0.06600
C1910       C  0.49535715  0.72745274  0.77767618     0.14300
C1911       C  0.52814161  0.71323955  0.76297244    -0.23400
H1912       H  0.50864362  0.74734265  0.82401156     0.15600
H1913       H  0.92847428  0.73272517  0.75878776     0.15600
C1914       C  0.91377406  0.76662735  0.82014594    -0.23300
H1915       H  0.54536648  0.72011240  0.77824537     0.05800
H1916       H  0.53774829  0.72216210  0.72478216     0.09100
H1917       H  0.52684487  0.68654791  0.77437151     0.09100
H1918       H  0.91622621  0.79317128  0.81059853     0.09000
H1919       H  0.90503211  0.75652792  0.85830942     0.09000
H1920       H  0.89536167  0.76174586  0.80514775     0.05800
C1921       C  0.84106312  0.02898358  0.88755437    -0.20000
C1922       C  0.83189223  0.00036786  0.88343914    -0.06600
C1923       C  0.85035579  0.97194343  0.89350889     0.14300
C1924       C  0.87715351  0.97279764  0.90906133    -0.20000
C1925       C  0.88531562  0.00121249  0.91502151    -0.06600
C1926       C  0.86803317  0.02990706  0.90228713     0.14300
C1927       C  0.87799781  0.06141531  0.90441376    -0.23400
H1928       H  0.82653567  0.05055350  0.88029896     0.15600
H1929       H  0.89048343  0.95073169  0.91934933     0.15600
C1930       C  0.84131209  0.94001439  0.89135932    -0.23300
H1931       H  0.86240831  0.08175035  0.89162382     0.05800
H1932       H  0.89893110  0.56816992  0.89372161     0.09100
H1933       H  0.85416776  0.04517386  0.47714418     0.09100
H1934       H  0.86125369  0.93137946  0.86677024     0.09000
H1935       H  0.81932431  0.94144896  0.88001318     0.09000
H1936       H  0.83702289  0.92191703  0.92612725     0.05800
C1937       C  0.86842831  0.01781800  0.73145735    -0.20000
C1938       C  0.86849652  0.99181469  0.71443313    -0.06600
C1939       C  0.84333471  0.96892888  0.73608463     0.14300
C1940       C  0.82009005  0.97132027  0.77638732    -0.20000
C1941       C  0.82000180  0.99738426  0.79352589    -0.06600
C1942       C  0.84363191  0.02176885  0.76913474     0.14300
C1943       C  0.84197830  0.55508240  0.77763492    -0.23400
H1944       H  0.88600427  0.53790453  0.71046460     0.15600
H1945       H  0.80171190  0.95294544  0.79443468     0.15600
C1946       C  0.84092947  0.94206448  0.71680180    -0.23300
H1947       H  0.84152815  0.57531385  0.74607492     0.05800
H1948       H  0.86352635  0.55760967  0.78819153     0.09100
H1949       H  0.82014329  0.55745843  0.80502393     0.09100
H1950       H  0.86333762  0.92764264  0.71393685     0.09000
H1951       H  0.83707730  0.95240727  0.68201938     0.09000
H1952       H  0.82054185  0.92560629  0.73900546     0.05800
C1953       C  0.63655697  0.00282795  0.79021911    -0.20000
C1954       C  0.63784771  0.97448601  0.77751028    -0.06600
C1955       C  0.61691362  0.44783353  0.81389495     0.14300
C1956       C  0.59357073  0.45159852  0.85308663    -0.20000
C1957       C  0.58964155  0.98288834  0.85513754    -0.06600
C1958       C  0.61298166  0.00713382  0.82907646     0.14300
C1959       C  0.61278926  0.03760637  0.84194433    -0.23400
H1960       H  0.65401294  0.02172402  0.76939556     0.15600
H1961       H  0.57978259  0.43086127  0.87746567     0.15600
C1962       C  0.62070722  0.41486205  0.80712678    -0.23300
H1963       H  0.63242359  0.05428139  0.81749030     0.05800
H1964       H  0.60562306  0.53911025  0.87299215     0.09100
H1965       H  0.58955981  0.05042236  0.84157319     0.09100
H1966       H  0.62491562  0.39666017  0.83842917     0.09000
H1967       H  0.63753244  0.91442366  0.76914683     0.09000
H1968       H  0.59844316  0.40839446  0.80159411     0.05800
C1969       C  0.60446837  0.98832903  0.69476308    -0.20000
C1970       C  0.62748567  0.96398227  0.69003816    -0.06600
C1971       C  0.61865515  0.44005802  0.67814901     0.14300
C1972       C  0.59392242  0.44439364  0.65696943    -0.20000
C1973       C  0.57508137  0.96958048  0.65336657    -0.06600
C1974       C  0.57793568  0.99114066  0.67722324     0.14300
C1975       C  0.55435326  0.01831219  0.68164121    -0.23400
H1976       H  0.60823856  0.00640107  0.70963317     0.15600
H1977       H  0.59103681  0.42707517  0.64022807     0.15600
C1978       C  0.63894495  0.40995110  0.67953401    -0.23300
H1979       H  0.56102813  0.03362869  0.69971677     0.05800
H1980       H  0.53010194  0.00825239  0.70183470     0.09100
H1981       H  0.55350034  0.03393588  0.64687095     0.09100
H1982       H  0.66237754  0.90903278  0.68806534     0.09000
H1983       H  0.65189831  0.40990524  0.64380213     0.09000
H1984       H  0.62319949  0.38832733  0.69674390     0.05800
C1985       C  0.72173846  0.51220320  0.75130448    -0.20000
C1986       C  0.71066496  0.98099191  0.75945272    -0.06600
C1987       C  0.71412371  0.95624724  0.79894719     0.14300
C1988       C  0.73181328  0.96246387  0.82570253    -0.20000
C1989       C  0.74641850  0.99254910  0.81321799    -0.06600
C1990       C  0.74047333  0.51834486  0.77687358     0.14300
C1991       C  0.75296771  0.55193032  0.76538927    -0.23400
H1992       H  0.71675980  0.53150787  0.72279047     0.15600
H1993       H  0.73457571  0.94370823  0.85629815     0.15600
C1994       C  0.70017395  0.92307467  0.81205144    -0.23300
H1995       H  0.74521345  0.56912606  0.73618874     0.05800
H1996       H  0.77958386  0.55161605  0.75543094     0.09100
H1997       H  0.74388131  0.56088666  0.79590649     0.09100
H1998       H  0.70924499  0.91280234  0.78280920     0.09000
H1999       H  0.67366973  0.92452610  0.82096395     0.09000
H2000       H  0.70675840  0.90621518  0.84253013     0.05800
loop_ 
_geom_bond_atom_site_label_1 
_geom_bond_atom_site_label_2 
_geom_bond_distance 
_geom_bond_site_symmetry_2 
_ccdc_geom_bond_type 
N1            C2   1.354       .  A
N1          C505   1.354       .  A
N1          C704   1.446       .  S
C2          C503   1.383       .  A
C2          C720   1.472       .  S
C3            C4   1.371       .  A
C3          C502   1.384       .  A
C3            H6   1.082       .  S
C4            C5   1.379       .  A
C4            H7   1.082       .  S
C5          N501   1.352       .  A
C5          C236   1.460       .  S
N8           C12   1.354       .  A
N8            C9   1.355       .  A
N8          C191   1.449       .  S
C9           C10   1.382       .  A
C9          C172   1.468       .  S
C10          C11   1.371       .  A
C10          H13   1.082       .  S
C11          C12   1.379       .  A
C11          H14   1.082       .  S
C12         C239   1.462       .  S
N15          C19   1.358       .  A
N15          C16   1.357       .  A
N15         C127   1.447       .  S
C16          C17   1.382       .  A
C16         C140   1.475       .  S
C17          C18   1.373       .  A
C17          H20   1.082       .  S
C18          C19   1.380       .  A
C18          H21   1.082       .  S
C19         C159   1.473       .  S
N22          C26   1.354       .  A
N22          C23   1.351       .  A
N22         C108   1.438       .  S
C23          C24   1.384       .  A
C23          C95   1.478       .  S
C24          C25   1.377       .  A
C24          H27   1.082       .  S
C25          C26   1.379       .  A
C25          H28   1.082       .  S
C26         C156   1.472       .  S
O29         Zr41   2.441       .  S
O29          C31   1.289       .  A
O30       Zr1067   2.396   1_455  S
O30          C31   1.280       .  A
C31         C223   1.463       .  S
O32        Zr294   2.434       .  S
O32          C34   1.286       .  A
O33        Zr568   2.434   1_545  S
O33          C34   1.288       .  A
C34         C124   1.480       .  S
O35         Zr44   2.424       .  S
O35          C37   1.284       .  A
O36        Zr567   2.426   1_545  S
O36          C37   1.287       .  A
C37         C143   1.474       .  S
O38        Zr291   2.451       .  S
O38          C40   1.289       .  A
O39       Zr1068   2.433   1_455  S
O39          C40   1.288       .  A
C40         C207   1.479       .  S
Zr41        O288   2.459   1_554  S
Zr41         O43   2.434       .  S
Zr41        O542   2.436   1_554  S
Zr41         O73   2.375       .  S
Zr41        O547   2.374       .  S
Zr41        O798   2.369   1_554  S
Zr41        O321   2.370       .  S
O42        Zr541   2.435   1_546  S
O42          H85   0.990       .  S
O43          H84   0.990       .  S
O43          H88   0.990       .  S
Zr44        O282   2.430   1_554  S
Zr44         O46   2.433   1_554  S
Zr44       O1045   2.434   1_554  S
Zr44         O72   2.375       .  S
Zr44       O1298   2.366   1_554  S
Zr44       O1047   2.365       .  S
Zr44        O324   2.367   1_554  S
O45       Zr1044   2.435   1_456  S
O45          H89   0.990       .  S
O45         H336   0.990       .  S
O46          H79   0.990       .  S
O47        Zr541   2.372   1_545  S
O47       Zr1044   2.360   1_455  S
O47       Zr1567   2.386   1_445  S
O48        Zr791   2.371   1_545  S
O48       Zr1294   2.364   1_455  S
O48       Zr1568   2.384   1_445  S
O48          H75   0.964       .  S
O49        Zr311   2.439       .  S
O49          C51   1.288       .  A
O50         Zr68   2.430       .  S
O50          C51   1.287       .  A
C51          C92   1.478       .  S
O52         Zr64   2.445       .  S
O52          C54   1.288       .  A
O53         Zr67   2.428       .  S
O53          C54   1.286       .  A
C54         C188   1.479       .  S
O55        Zr314   2.436       .  S
O55          C57   1.288       .  A
O56         Zr68   2.421       .  S
O56          C57   1.286       .  A
C57         C175   1.468       .  S
O58         Zr61   2.443       .  S
O58          C60   1.288       .  A
O59         Zr67   2.421       .  S
O59          C60   1.285       .  A
C60         C111   1.469       .  S
Zr61        O299   2.441       .  S
Zr61         O62   2.436       .  S
Zr61       O1063   2.435       .  S
Zr61         O69   2.366       .  S
Zr61         O70   2.379       .  S
Zr61       O1073   2.365       .  S
Zr61       O1321   2.378       .  S
O62          H82   0.990       .  S
O62          H87   0.990       .  S
O63       Zr1061   2.436   1_455  S
O63          H83   0.990   1_455  S
Zr64        O305   2.435   1_554  S
Zr64         O65   2.434       .  S
Zr64        O566   2.435       .  S
Zr64         O70   2.373       .  S
Zr64         O69   2.370       .  S
Zr64        O824   2.367   1_554  S
Zr64        O572   2.362       .  S
O65          H81   0.990       .  S
O66        Zr564   2.434       .  S
O66          H80   0.990       .  S
O66          H90   0.990       .  S
Zr67       O1030   2.403       .  S
Zr67        O536   2.418       .  S
Zr67         O70   2.379       .  S
Zr67       O1547   2.386       .  S
Zr67        O572   2.376       .  S
Zr67       O1073   2.388       .  S
Zr68        O533   2.438       .  S
Zr68       O1039   2.440       .  S
Zr68       O1548   2.383       .  S
Zr68        O319   2.389       .  S
Zr68       O1071   2.384       .  S
Zr68        O574   2.385       .  S
O69        Zr318   2.390   1_554  S
O69          H77   0.965       .  S
O71        Zr291   2.371       .  S
O71       Zr1311   2.379   1_455  S
O71       Zr1068   2.381   1_455  S
O72        Zr564   2.363       .  S
O72        Zr567   2.381   1_545  S
O72          H76   0.966       .  S
O73       Zr1061   2.365   1_455  S
O73       Zr1067   2.389   1_455  S
O73          H78   0.966       .  S
O74        Zr294   2.368       .  S
O74        Zr814   2.366       .  S
O74        Zr568   2.383   1_545  S
H86         O295   0.990       .  S
C91          C92   1.402       .  A
C91          C96   1.400       .  A
C91          H98   1.084       .  S
C92        C1093   1.413       .  A
C93        C1092   1.413       .  A
C93        C1094   1.404       .  A
C93         C100   1.500   1_655  S
C94          C95   1.402       .  A
C94        C1093   1.406       .  A
C94        H1099   1.084       .  S
C95          C96   1.411       .  A
C96          C97   1.507       .  S
C97         H101   1.111       .  S
C97         H102   1.108       .  S
C97         H103   1.111       .  S
H99        C1094   1.084   1_455  S
C100        H104   1.110       .  S
C100        H105   1.110       .  S
C100        H106   1.111       .  S
C107        C108   1.402       .  A
C107        C112   1.404       .  A
C107        H114   1.084       .  S
C108        C109   1.413       .  A
C109        C110   1.400       .  A
C109        C116   1.504       .  S
C110        C111   1.400       .  A
C110        H115   1.085       .  S
C111        C112   1.411       .  A
C112        C113   1.505       .  S
C113        H117   1.111       .  S
C113        H118   1.110       .  S
C113        H119   1.110       .  S
C116        H120   1.110       .  S
C116        H122   1.111       .  S
C116       H1121   1.108       .  S
H121       C1116   1.107       .  S
C123        C128   1.406       .  A
C123       C1124   1.403   1_455  A
C123        H130   1.085       .  S
C124        C125   1.415       .  A
C124       C1123   1.402       .  A
C125        C126   1.402       .  A
C125        C132   1.508       .  S
C126        C127   1.404       .  A
C126        H131   1.082       .  S
C127       C1128   1.417       .  A
C128       C1127   1.419   1_455  A
C128        C129   1.504       .  S
C129        H133   1.111       .  S
C129        H134   1.107       .  S
C129        H135   1.111       .  S
C132        H136   1.109       .  S
C132        H137   1.108       .  S
C132        H138   1.111       .  S
C139        C144   1.395       .  A
C139       C1140   1.400   1_455  A
C139        H146   1.085       .  S
C140        C141   1.412       .  A
C140       C1139   1.401       .  A
C141        C142   1.403       .  A
C141        C148   1.506       .  S
C142        C143   1.404       .  A
C142        H147   1.084       .  S
C143       C1144   1.415       .  A
C144       C1143   1.414   1_455  A
C144        C145   1.510       .  S
C145        H149   1.111       .  S
C145        H150   1.108       .  S
C145        H151   1.109       .  S
C148        H152   1.110       .  S
C148        H153   1.105       .  S
C148        H154   1.111       .  S
C155        C156   1.401       .  A
C155       C1160   1.401       .  A
C155       H1162   1.084       .  S
C156        C157   1.410       .  A
C157        C158   1.402       .  A
C157        C164   1.506       .  S
C158        C159   1.402       .  A
C158        H163   1.084       .  S
C159       C1160   1.409       .  A
C160       C1155   1.400   1_455  A
C160       C1159   1.409   1_455  A
C160        C161   1.506       .  S
C161        H165   1.111       .  S
C161        H166   1.110       .  S
C161        H167   1.106       .  S
H162       C1155   1.084   1_455  S
C164        H168   1.107       .  S
C164        H169   1.110       .  S
C164        H170   1.111       .  S
C171        C172   1.400       .  A
C171        C176   1.395       .  A
C171        H178   1.085       .  S
C172        C173   1.413       .  A
C173        C174   1.403       .  A
C173        C180   1.507       .  S
C174        C175   1.404       .  A
C174        H179   1.085       .  S
C175        C176   1.410       .  A
C176        C177   1.505       .  S
C177        H181   1.111       .  S
C177        H682   1.107       .  S
C177        H433   1.107       .  S
C180        H184   1.110       .  S
C180        H185   1.107       .  S
C180        H186   1.111       .  S
H182        C677   1.108       .  S
H183        C427   1.109       .  S
C187        C188   1.403       .  A
C187        C192   1.406       .  A
C187        H694   1.085       .  S
C188        C189   1.412       .  A
C189        C190   1.403       .  A
C189        C196   1.506       .  S
C190        C191   1.405       .  A
C190        H195   1.082       .  S
C191        C192   1.417       .  A
C192        C693   1.504       .  S
C193        C692   1.504       .  S
C193        H197   1.111       .  S
C193        H198   1.110       .  S
C193        H199   1.107       .  S
H194        C687   1.085       .  S
C196        H200   1.108       .  S
C196        H201   1.109       .  S
C196        H202   1.111       .  S
C203        C204   1.406       .  A
C203        C208   1.407       .  A
C203        H210   1.083       .  S
C204        N501   1.447       .  S
C204        C705   1.416       .  A
C205        C206   1.403       .  A
C205        C704   1.417       .  A
C205        C212   1.505       .  S
C206        C707   1.399       .  A
C206        H211   1.081       .  S
C207        C208   1.411       .  A
C207        C706   1.398       .  A
C208        C209   1.505       .  S
C209        H213   1.111       .  S
C209        H215   1.111       .  S
C209        H714   1.110       .  S
C212        H216   1.110       .  S
C212        H218   1.111       .  S
C212        H717   1.105       .  S
H214        C709   1.109       .  S
H217        C712   1.105       .  S
C219        C220   1.401       .  A
C219        C224   1.401       .  A
C219        H226   1.084       .  S
C220        C721   1.412       .  A
C220        C502   1.466       .  S
C221        C222   1.394       .  A
C221        C720   1.413       .  A
C221        C228   1.509       .  S
C222        C723   1.399       .  A
C222        H227   1.085       .  S
C223        C224   1.414       .  A
C223        C722   1.398       .  A
C224        C225   1.507       .  S
C225        H229   1.111       .  S
C225        H230   1.110       .  S
C225        H231   1.108       .  S
C228        H233   1.110       .  S
C228        H234   1.110       .  S
C228        H732   1.107       .  S
H232        C728   1.108       .  S
C235        C240   1.400       .  A
C235        C736   1.401   1_545  A
C235        H242   1.084       .  S
C236        C237   1.409       .  A
C236        C735   1.399       .  A
C237        C238   1.396       .  A
C237        C244   1.506       .  S
C238        C239   1.399       .  A
C238        H243   1.084       .  S
C239        C740   1.409       .  A
C240        C739   1.409   1_545  A
C240        C241   1.506       .  S
C241        H245   1.111       .  S
C241        H246   1.107       .  S
C241        H247   1.110       .  S
C244        H248   1.110       .  S
C244        H249   1.105       .  S
C244        H250   1.111       .  S
N251        C755   1.354       .  A
N251        C252   1.354       .  A
N251        C954   1.446       .  S
C252        C753   1.384       .  A
C252        C970   1.471       .  S
C253        C752   1.384       .  A
C253        C254   1.370       .  A
C253        H256   1.082       .  S
C254        C255   1.378       .  A
C254        H257   1.082       .  S
C255        N751   1.353       .  A
C255        C486   1.460       .  S
N258        C262   1.352       .  A
N258        C259   1.353       .  A
N258        C441   1.450       .  S
C259        C260   1.381       .  A
C259        C422   1.462       .  S
C260        C261   1.371       .  A
C260        H263   1.082       .  S
C261        C262   1.379       .  A
C261        H264   1.082       .  S
C262        C489   1.458       .  S
N265        C269   1.358       .  A
N265        C266   1.355       .  A
N265        C377   1.443       .  S
C266        C267   1.381       .  A
C266        C390   1.474       .  S
C267        C268   1.374       .  A
C267        H270   1.082       .  S
C268        C269   1.381       .  A
C268        H271   1.082       .  S
C269        C409   1.476       .  S
N272        C276   1.356       .  A
N272        C273   1.354       .  A
N272        C358   1.441       .  S
C273        C274   1.384       .  A
C273        C345   1.480       .  S
C274        C275   1.376       .  A
C274        H277   1.082       .  S
C275        C276   1.379       .  A
C275        H278   1.082       .  S
C276        C406   1.474       .  S
O279       Zr291   2.435       .  S
O279        C281   1.288       .  A
O280      Zr1317   2.414   1_455  S
O280        C281   1.284       .  A
C281        C473   1.470       .  S
O282        C284   1.285       .  A
O283       Zr818   2.427   1_545  S
O283        C284   1.286       .  A
C284        C374   1.473       .  S
O285       Zr294   2.430       .  S
O285        C287   1.285       .  A
O286       Zr817   2.420   1_545  S
O286        C287   1.285       .  A
C287        C393   1.470       .  S
O288        C290   1.290       .  A
O289      Zr1318   2.437   1_455  S
O289        C290   1.288       .  A
C290        C457   1.484       .  S
Zr291       O792   2.434       .  S
Zr291       O293   2.435       .  S
Zr291       O797   2.373       .  S
Zr291       O548   2.370       .  S
Zr291       O323   2.373       .  S
O292       Zr791   2.435   1_545  S
O292        H335   0.990       .  S
O293        H334   0.990       .  S
O293        H338   0.990       .  S
Zr294      O1295   2.436       .  S
Zr294       O296   2.435       .  S
Zr294      O1048   2.365       .  S
Zr294      O1297   2.366       .  S
Zr294       O322   2.374       .  S
O295      Zr1294   2.435   1_455  S
O295        H339   0.990       .  S
O296        H329   0.990       .  S
O297       Zr791   2.378   1_545  S
O297      Zr1294   2.368   1_455  S
O297      Zr1817   2.391   1_445  S
O298       Zr541   2.374   1_546  S
O298      Zr1044   2.366   1_456  S
O298      Zr1818   2.382   1_445  S
O298        H325   0.965       .  S
O299        C301   1.288   1_554  A
O300       Zr318   2.429       .  S
O300        C301   1.287       .  A
C301        C342   1.478       .  S
O302       Zr314   2.449       .  S
O302        C304   1.289       .  A
O303       Zr317   2.436       .  S
O303        C304   1.288       .  A
C304        C438   1.483       .  S
O305        C307   1.287       .  A
O306       Zr318   2.404       .  S
O306        C307   1.282       .  A
C307        C425   1.458       .  S
O308       Zr311   2.447       .  S
O308        C310   1.288       .  A
O309       Zr317   2.426       .  S
O309        C310   1.286       .  A
C310        C361   1.473       .  S
Zr311       O312   2.438       .  S
Zr311      O1313   2.434       .  S
Zr311       O319   2.365       .  S
Zr311       O320   2.377       .  S
Zr311      O1323   2.363       .  S
Zr311      O1071   2.379       .  S
O312        H332   0.990       .  S
O312        H337   0.990       .  S
O313      Zr1311   2.434   1_455  S
O313        H333   0.990   1_455  S
Zr314       O315   2.434       .  S
Zr314       O816   2.434       .  S
Zr314       O320   2.371       .  S
Zr314       O319   2.370       .  S
Zr314       O574   2.373       .  S
Zr314       O822   2.365       .  S
O315        H331   0.990       .  S
O316       Zr814   2.433       .  S
O316        H330   0.990       .  S
O316        H340   0.990       .  S
Zr317      O1280   2.412       .  S
Zr317       O786   2.421       .  S
Zr317      O1797   2.387       .  S
Zr317       O320   2.377       .  S
Zr317       O822   2.379       .  S
Zr317      O1323   2.387       .  S
Zr318       O783   2.440       .  S
Zr318      O1289   2.433       .  S
Zr318      O1798   2.381       .  S
Zr318      O1321   2.382   1_556  S
Zr318       O824   2.382       .  S
O319        H327   0.965       .  S
O321      Zr1061   2.383   1_455  S
O321      Zr1318   2.383   1_454  S
O322       Zr814   2.367       .  S
O322       Zr817   2.384   1_545  S
O322        H326   0.965       .  S
O323      Zr1311   2.367   1_455  S
O323      Zr1317   2.388   1_455  S
O323        H328   0.966       .  S
O324       Zr564   2.372   1_556  S
O324       Zr818   2.385   1_545  S
C341        C342   1.402       .  A
C341        C346   1.402       .  A
C341        H348   1.084       .  S
C342       C1343   1.413       .  A
C343       C1342   1.412       .  A
C343       C1344   1.401       .  A
C343        C350   1.503   1_655  S
C344       C1343   1.404       .  A
C344        C345   1.402       .  A
C344       H1349   1.084       .  S
C345        C346   1.413       .  A
C346        C347   1.508       .  S
C347        H351   1.111       .  S
C347        H352   1.107       .  S
C347        H353   1.110       .  S
H349       C1344   1.084   1_455  S
C350        H354   1.110       .  S
C350        H355   1.110       .  S
C350        H356   1.111       .  S
C357        C358   1.403       .  A
C357        C362   1.405       .  A
C357        H364   1.084       .  S
C358        C359   1.413       .  A
C359        C360   1.401       .  A
C359        C366   1.504       .  S
C360        C361   1.401       .  A
C360        H365   1.085       .  S
C361        C362   1.411       .  A
C362        C363   1.504       .  S
C363        H367   1.111       .  S
C363        H368   1.110       .  S
C363        H369   1.110       .  S
C366        H370   1.110       .  S
C366       H1371   1.108       .  S
C366        H372   1.111       .  S
H371       C1366   1.107       .  S
C373       C1374   1.402   1_455  A
C373        C378   1.404       .  A
C373        H380   1.085       .  S
C374       C1373   1.401       .  A
C374        C375   1.413       .  A
C375        C376   1.399       .  A
C375        C382   1.506       .  S
C376        C377   1.401       .  A
C376        H381   1.082       .  S
C377       C1378   1.418       .  A
C378       C1377   1.416   1_455  A
C378        C379   1.504       .  S
C379        H383   1.111       .  S
C379        H384   1.107       .  S
C379        H385   1.110       .  S
C382        H386   1.108       .  S
C382        H387   1.108       .  S
C382        H388   1.111       .  S
C389       C1390   1.400   1_455  A
C389        C394   1.398       .  A
C389        H396   1.085       .  S
C390       C1389   1.399       .  A
C390        C391   1.413       .  A
C391        C392   1.404       .  A
C391        C398   1.506       .  S
C392        C393   1.403       .  A
C392        H397   1.084       .  S
C393       C1394   1.413       .  A
C394       C1393   1.415   1_455  A
C394        C395   1.509       .  S
C395        H399   1.111       .  S
C395        H400   1.108       .  S
C395        H401   1.110       .  S
C398        H402   1.110       .  S
C398        H403   1.105       .  S
C398        H404   1.111       .  S
C405        C406   1.403       .  A
C405       C1410   1.403       .  A
C405       H1412   1.084       .  S
C406        C407   1.410       .  A
C407        C408   1.401       .  A
C407        C414   1.506       .  S
C408        C409   1.402       .  A
C408        H413   1.084       .  S
C409       C1410   1.410       .  A
C410       C1405   1.401       .  A
C410       C1409   1.411   1_455  A
C410        C411   1.505       .  S
C411        H415   1.111       .  S
C411        H416   1.110       .  S
C411        H417   1.106       .  S
H412       C1405   1.084       .  S
C414        H418   1.106       .  S
C414        H419   1.110       .  S
C414        H420   1.111       .  S
C421        C422   1.399       .  A
C421        C426   1.393       .  A
C421        H428   1.084       .  S
C422        C423   1.413       .  A
C423        C424   1.400       .  A
C423        C430   1.508       .  S
C424        C425   1.401       .  A
C424        H429   1.085       .  S
C425        C426   1.406       .  A
C426        C427   1.504       .  S
C427        H431   1.111       .  S
C427        H932   1.109       .  S
C430        H434   1.110       .  S
C430        H435   1.107       .  S
C430        H436   1.111       .  S
H432        C927   1.106       .  S
C437        C438   1.403       .  A
C437        C442   1.406       .  A
C437        H944   1.085       .  S
C438        C439   1.413       .  A
C439        C440   1.406       .  A
C439        C446   1.506       .  S
C440        C441   1.405       .  A
C440        H445   1.081       .  S
C441        C442   1.417       .  A
C442        C943   1.504       .  S
C443        C942   1.505       .  S
C443        H447   1.111       .  S
C443        H448   1.110       .  S
C443        H449   1.107       .  S
H444        C937   1.085       .  S
C446        H450   1.107       .  S
C446        H451   1.109       .  S
C446        H452   1.111       .  S
C453        C454   1.407       .  A
C453        C458   1.409       .  A
C453        H460   1.083       .  S
C454        N751   1.449       .  S
C454        C955   1.416       .  A
C455        C954   1.416       .  A
C455        C456   1.403       .  A
C455        C462   1.506       .  S
C456        C957   1.400       .  A
C456        H461   1.080       .  S
C457        C956   1.400       .  A
C457        C458   1.412       .  A
C458        C459   1.506       .  S
C459        H463   1.111       .  S
C459        H964   1.110       .  S
C459        H465   1.111       .  S
C462        H466   1.111       .  S
C462        H967   1.106       .  S
C462        H468   1.110       .  S
H464        C959   1.110       .  S
H467        C962   1.105       .  S
C469        C470   1.402       .  A
C469        C474   1.403       .  A
C469        H476   1.084       .  S
C470        C971   1.414       .  A
C470        C752   1.471       .  S
C471        C970   1.413       .  A
C471        C472   1.397       .  A
C471        C478   1.508       .  S
C472        C973   1.400       .  A
C472        H477   1.085       .  S
C473        C972   1.400       .  A
C473        C474   1.415       .  A
C474        C475   1.507       .  S
C475        H479   1.111       .  S
C475        H480   1.110       .  S
C475        H481   1.108       .  S
C478        H982   1.108       .  S
C478        H483   1.110       .  S
C478        H484   1.111       .  S
H482        C978   1.107       .  S
C485        C986   1.402   1_545  A
C485        C490   1.401       .  A
C485        H492   1.084       .  S
C486        C985   1.400       .  A
C486        C487   1.409       .  A
C487        C488   1.396       .  A
C487        C494   1.506       .  S
C488        C489   1.398       .  A
C488        H493   1.084       .  S
C489        C990   1.407       .  A
C490        C989   1.408   1_545  A
C490        C491   1.506       .  S
C491        H495   1.111       .  S
C491        H496   1.108       .  S
C491        H497   1.110       .  S
C494        H498   1.110       .  S
C494        H499   1.106       .  S
C494        H500   1.111       .  S
N501        C502   1.352       .  A
C503        C504   1.372       .  A
C503        H506   1.082       .  S
C504        C505   1.379       .  A
C504        H507   1.082       .  S
C505        C736   1.467       .  S
N508        C512   1.357   1_545  A
N508        C509   1.356   1_545  A
N508        C691   1.450       .  S
C509        C510   1.381       .  A
C509        C672   1.467   1_565  S
C510        C511   1.370       .  A
C510        H513   1.082       .  S
C511        C512   1.380       .  A
C511        H514   1.082       .  S
C512        C739   1.467       .  S
N515        C519   1.358       .  A
N515        C516   1.356       .  A
N515        C627   1.447       .  S
C516        C517   1.381       .  A
C516        C640   1.472       .  S
C517        C518   1.372       .  A
C517        H520   1.082       .  S
C518        C519   1.380       .  A
C518        H521   1.082       .  S
C519        C659   1.473       .  S
N522        C526   1.357       .  A
N522        C523   1.353       .  A
N522        C608   1.443       .  S
C523        C524   1.382       .  A
C523        C595   1.474       .  S
C524        C525   1.374       .  A
C524        H527   1.082       .  S
C525        C526   1.380       .  A
C525        H528   1.082       .  S
C526        C656   1.474       .  S
O529       Zr541   2.436       .  S
O529        C531   1.288       .  A
O530      Zr1567   2.414   1_455  S
O530        C531   1.284       .  A
C531        C723   1.470       .  S
O532       Zr794   2.434       .  S
O532        C534   1.286       .  A
O533        C534   1.289       .  A
C534        C624   1.480       .  S
O535       Zr544   2.425       .  S
O535        C537   1.284       .  A
O536        C537   1.285       .  A
C537        C643   1.469       .  S
O538       Zr791   2.457       .  S
O538        C540   1.290       .  A
O539      Zr1568   2.422   1_455  S
O539        C540   1.285       .  A
C540        C707   1.476       .  S
Zr541       O788   2.453   1_554  S
Zr541       O543   2.434       .  S
Zr541       O821   2.368   1_554  S
Zr541       O573   2.373       .  S
O542        H585   0.990   1_556  S
O543        H584   0.990       .  S
O543        H588   0.990       .  S
Zr544       O782   2.422   1_554  S
Zr544      O1545   2.433   1_554  S
Zr544       O546   2.435       .  S
Zr544      O1798   2.368   1_554  S
Zr544      O1547   2.364       .  S
Zr544       O572   2.371       .  S
Zr544       O824   2.366   1_554  S
O545      Zr1544   2.434   1_456  S
O545        H836   0.990       .  S
O545        H589   0.990   1_556  S
O546        H579   0.990       .  S
O547      Zr1544   2.363   1_455  S
O547      Zr1067   2.387   1_455  S
O548      Zr1794   2.367   1_455  S
O548      Zr1068   2.379   1_455  S
O548        H575   0.965       .  S
O549       Zr811   2.443       .  S
O549        C551   1.289       .  A
O550       Zr568   2.424       .  S
O550        C551   1.286       .  A
C551        C592   1.477       .  S
O552       Zr564   2.450       .  S
O552        C554   1.289       .  A
O553       Zr567   2.431       .  S
O553        C554   1.287   1_565  A
C554        C688   1.482       .  S
O555       Zr814   2.440       .  S
O555        C557   1.288       .  A
O556       Zr568   2.408   1_545  S
O556        C557   1.283       .  A
C557        C675   1.466       .  S
O558       Zr561   2.444       .  S
O558        C560   1.288       .  A
O559       Zr567   2.430       .  S
O559        C560   1.287       .  A
C560        C611   1.474       .  S
Zr561       O799   2.440   1_554  S
Zr561       O562   2.436       .  S
Zr561      O1563   2.434       .  S
Zr561       O569   2.369       .  S
Zr561       O570   2.375       .  S
Zr561      O1573   2.370       .  S
Zr561      O1821   2.375   1_554  S
O562        H582   0.990       .  S
O562        H587   0.990       .  S
O563      Zr1561   2.434   1_455  S
O563        H583   0.990   1_455  S
Zr564       O805   2.439   1_554  S
Zr564       O565   2.434   1_545  S
Zr564       O570   2.372   1_545  S
Zr564       O569   2.373   1_545  S
O565        H581   0.990       .  S
O566        H580   0.990       .  S
O566        H590   0.990       .  S
Zr567      O1530   2.410       .  S
Zr567      O1047   2.388   1_565  S
Zr567       O570   2.380       .  S
Zr567      O1573   2.389       .  S
Zr568      O1539   2.426       .  S
Zr568      O1048   2.381   1_565  S
Zr568       O819   2.390       .  S
Zr568      O1571   2.385       .  S
O569       Zr818   2.392   1_554  S
O569        H577   0.965       .  S
O571       Zr791   2.375       .  S
O571      Zr1811   2.380   1_455  S
O571      Zr1568   2.383   1_455  S
O572        H576   0.965       .  S
O573      Zr1561   2.367   1_455  S
O573      Zr1567   2.387   1_455  S
O573        H578   0.966       .  S
O574       Zr794   2.369       .  S
H586        O795   0.990       .  S
C591        C592   1.402       .  A
C591        C596   1.401       .  A
C591        H598   1.084       .  S
C592       C1593   1.414       .  A
C593       C1592   1.413       .  A
C593       C1594   1.406       .  A
C593        C600   1.504   1_655  S
C594       C1593   1.404       .  A
C594        C595   1.400       .  A
C594       H1599   1.084       .  S
C595        C596   1.411       .  A
C596        C597   1.507       .  S
C597        H601   1.111       .  S
C597        H602   1.108       .  S
C597        H603   1.111       .  S
H599       C1594   1.084   1_455  S
C600        H604   1.110       .  S
C600        H605   1.110       .  S
C600        H606   1.111       .  S
C607        C608   1.405       .  A
C607        C612   1.406       .  A
C607        H614   1.083       .  S
C608        C609   1.414       .  A
C609        C610   1.400       .  A
C609        C616   1.504       .  S
C610        C611   1.400       .  A
C610        H615   1.085       .  S
C611        C612   1.411       .  A
C612        C613   1.504       .  S
C613        H617   1.111       .  S
C613        H618   1.108       .  S
C613        H619   1.110       .  S
C616        H620   1.110       .  S
C616       H1621   1.107       .  S
C616        H622   1.111       .  S
H621       C1616   1.107       .  S
C623       C1624   1.401   1_455  A
C623        C628   1.403       .  A
C623        H630   1.085       .  S
C624       C1623   1.401       .  A
C624        C625   1.416       .  A
C625        C626   1.404       .  A
C625        C632   1.507       .  S
C626        C627   1.404       .  A
C626        H631   1.083       .  S
C627       C1628   1.417       .  A
C628       C1627   1.417   1_455  A
C628        C629   1.504       .  S
C629        H633   1.111       .  S
C629        H634   1.107       .  S
C629        H635   1.110       .  S
C632        H636   1.109       .  S
C632        H637   1.107       .  S
C632        H638   1.111       .  S
C639       C1640   1.401   1_455  A
C639        C644   1.397       .  A
C639        H646   1.084       .  S
C640       C1639   1.400       .  A
C640        C641   1.411       .  A
C641        C642   1.403       .  A
C641        C648   1.506       .  S
C642        C643   1.403       .  A
C642        H647   1.084       .  S
C643       C1644   1.414       .  A
C644       C1643   1.413   1_455  A
C644        C645   1.509       .  S
C645        H649   1.111       .  S
C645        H650   1.108       .  S
C645        H651   1.109       .  S
C648        H652   1.110       .  S
C648        H653   1.106       .  S
C648        H654   1.111       .  S
C655        C656   1.402       .  A
C655       C1660   1.400       .  A
C655       H1662   1.084       .  S
C656        C657   1.411       .  A
C657        C658   1.402       .  A
C657        C664   1.506       .  S
C658        C659   1.402       .  A
C658        H663   1.084       .  S
C659       C1660   1.410       .  A
C660       C1655   1.403       .  A
C660       C1659   1.411       .  A
C660        C661   1.506   1_655  S
C661        H665   1.111       .  S
C661        H666   1.110       .  S
C661        H667   1.105       .  S
H662       C1655   1.084   1_455  S
C664        H668   1.106       .  S
C664        H669   1.110       .  S
C664        H670   1.111       .  S
C671        C672   1.400       .  A
C671        C676   1.395       .  A
C671        H678   1.085       .  S
C672        C673   1.413   1_545  A
C673        C674   1.401       .  A
C673        C680   1.507       .  S
C674        C675   1.403   1_565  A
C674        H679   1.085       .  S
C675        C676   1.409       .  A
C676        C677   1.505       .  S
C677        H681   1.111       .  S
C677        H933   1.107       .  S
C680        H684   1.110       .  S
C680        H685   1.107       .  S
C680        H686   1.111       .  S
H683        C927   1.108       .  S
C687        C688   1.402       .  A
C687        C692   1.406       .  A
C688        C689   1.413   1_545  A
C689        C690   1.405       .  A
C689        C696   1.506       .  S
C690        C691   1.405   1_565  A
C690        H695   1.082       .  S
C691        C692   1.418       .  A
C693        H697   1.111       .  S
C693        H698   1.110       .  S
C693        H699   1.107       .  S
C696        H700   1.107       .  S
C696        H701   1.109       .  S
C696        H702   1.111       .  S
C703        C704   1.405   1_545  A
C703        C708   1.406       .  A
C703        H710   1.083       .  S
C705        C706   1.402       .  A
C705        C712   1.505       .  S
C706        H711   1.077       .  S
C707        C708   1.411   1_565  A
C708        C709   1.506       .  S
C709        H713   1.111       .  S
C709        H715   1.111       .  S
C712        H716   1.111       .  S
C712        H718   1.110       .  S
C719        C720   1.403       .  A
C719        C724   1.405       .  A
C719        H726   1.084   1_565  S
C721        C722   1.392       .  A
C721        C728   1.508       .  S
C722        H727   1.085       .  S
C723        C724   1.414       .  A
C724        C725   1.507   1_565  S
C725        H729   1.111       .  S
C725        H730   1.110       .  S
C725        H731   1.109       .  S
C728        H733   1.110       .  S
C728        H734   1.111       .  S
C735        C740   1.398       .  A
C735        H742   1.084       .  S
C736        C737   1.410       .  A
C737        C738   1.399       .  A
C737        C744   1.506       .  S
C738        C739   1.401       .  A
C738        H743   1.084       .  S
C740        C741   1.505       .  S
C741        H745   1.111       .  S
C741        H746   1.108       .  S
C741        H747   1.110       .  S
C744        H748   1.110       .  S
C744        H749   1.107       .  S
C744        H750   1.111       .  S
N751        C752   1.355       .  A
C753        C754   1.372       .  A
C753        H756   1.082       .  S
C754        C755   1.379       .  A
C754        H757   1.082       .  S
C755        C986   1.465       .  S
N758        C762   1.357       .  A
N758        C759   1.358       .  A
N758        C941   1.450       .  S
C759        C760   1.383       .  A
C759        C922   1.473       .  S
C760        C761   1.369       .  A
C760        H763   1.082       .  S
C761        C762   1.379       .  A
C761        H764   1.082   1_545  S
C762        C989   1.465   1_545  S
N765        C769   1.361       .  A
N765        C766   1.359       .  A
N765        C877   1.446       .  S
C766        C767   1.382       .  A
C766        C890   1.480       .  S
C767        C768   1.372       .  A
C767        H770   1.082       .  S
C768        C769   1.380       .  A
C768        H771   1.082       .  S
C769        C909   1.479       .  S
N772        C776   1.358       .  A
N772        C773   1.353       .  A
N772        C858   1.442       .  S
C773        C774   1.382       .  A
C773        C845   1.476       .  S
C774        C775   1.375       .  A
C774        H777   1.082       .  S
C775        C776   1.381       .  A
C775        H778   1.082       .  S
C776        C906   1.478       .  S
O779       Zr791   2.445       .  S
O779        C781   1.290       .  A
O780      Zr1817   2.405   1_455  S
O780        C781   1.283       .  A
C781        C973   1.466       .  S
O782        C784   1.284       .  A
O783        C784   1.290       .  A
C784        C874   1.478       .  S
O785       Zr794   2.430       .  S
O785        C787   1.286       .  A
O786        C787   1.285       .  A
C787        C893   1.471       .  S
O788        C790   1.289       .  A
O789      Zr1818   2.434   1_455  S
O789        C790   1.288       .  A
C790        C957   1.479       .  S
Zr791       O793   2.434       .  S
Zr791       O823   2.371       .  S
O792        H835   0.990       .  S
O793        H834   0.990       .  S
O793        H838   0.990       .  S
Zr794      O1795   2.434       .  S
Zr794       O796   2.434       .  S
Zr794      O1548   2.367       .  S
Zr794      O1797   2.368       .  S
Zr794       O822   2.372       .  S
O795      Zr1794   2.435   1_455  S
O795        H839   0.990       .  S
O796        H829   0.990       .  S
O797      Zr1794   2.360   1_455  S
O797      Zr1317   2.385   1_455  S
O798      Zr1544   2.361   1_456  S
O798      Zr1318   2.374   1_455  S
O798        H825   0.965       .  S
O799        C801   1.288       .  A
O800       Zr818   2.426       .  S
O800        C801   1.286       .  A
C801        C842   1.473       .  S
O802       Zr814   2.441       .  S
O802        C804   1.287       .  A
O803       Zr817   2.438       .  S
O803        C804   1.288   1_565  A
C804        C938   1.481       .  S
O805        C807   1.288       .  A
O806       Zr818   2.416   1_545  S
O806        C807   1.285       .  A
C807        C925   1.472       .  S
O808       Zr811   2.456       .  S
O808        C810   1.290       .  A
O809       Zr817   2.425       .  S
O809        C810   1.286       .  A
C810        C861   1.478       .  S
Zr811       O812   2.435       .  S
Zr811      O1813   2.435       .  S
Zr811       O819   2.368       .  S
Zr811       O820   2.374       .  S
Zr811      O1823   2.365       .  S
Zr811      O1571   2.382       .  S
O812        H832   0.990       .  S
O812        H837   0.990       .  S
O813      Zr1811   2.435   1_455  S
O813        H833   0.990       .  S
Zr814       O815   2.434   1_545  S
Zr814       O820   2.375   1_545  S
Zr814       O819   2.369   1_545  S
O815        H831   0.990       .  S
O816        H830   0.990       .  S
O816        H840   0.990       .  S
Zr817      O1780   2.419       .  S
Zr817      O1297   2.389   1_565  S
Zr817       O820   2.379       .  S
Zr817      O1823   2.393       .  S
Zr818      O1789   2.435       .  S
Zr818      O1298   2.384   1_565  S
Zr818      O1821   2.380       .  S
O819        H827   0.965       .  S
O821      Zr1561   2.377   1_456  S
O821      Zr1818   2.380   1_455  S
O822        H826   0.966       .  S
O823      Zr1811   2.363   1_455  S
O823      Zr1817   2.389   1_455  S
O823        H828   0.966       .  S
C841        C842   1.402       .  A
C841        C846   1.401       .  A
C841        H848   1.084       .  S
C842       C1843   1.412       .  A
C843       C1842   1.414       .  A
C843       C1844   1.404       .  A
C843        C850   1.502   1_655  S
C844       C1843   1.404       .  A
C844        C845   1.401       .  A
C844       H1849   1.084       .  S
C845        C846   1.411       .  A
C846        C847   1.507       .  S
C847        H851   1.111       .  S
C847        H852   1.109       .  S
C847        H853   1.110       .  S
H849       C1844   1.084   1_455  S
C850        H854   1.108       .  S
C850        H855   1.110       .  S
C850        H856   1.111       .  S
C857        C858   1.404       .  A
C857        C862   1.406       .  A
C857        H864   1.084       .  S
C858        C859   1.412       .  A
C859        C860   1.403       .  A
C859        C866   1.503       .  S
C860        C861   1.401       .  A
C860        H865   1.085       .  S
C861        C862   1.413       .  A
C862        C863   1.503       .  S
C863        H867   1.111       .  S
C863        H868   1.108       .  S
C863        H869   1.110       .  S
C866        H870   1.110       .  S
C866       H1871   1.107       .  S
C866        H872   1.111       .  S
H871       C1866   1.107       .  S
C873       C1874   1.403   1_455  A
C873        C878   1.406       .  A
C873        H880   1.085       .  S
C874       C1873   1.400       .  A
C874        C875   1.417       .  A
C875        C876   1.404       .  A
C875        C882   1.508       .  S
C876        C877   1.404       .  A
C876        H881   1.083       .  S
C877       C1878   1.418       .  A
C878       C1877   1.418   1_455  A
C878        C879   1.504       .  S
C879        H883   1.111       .  S
C879        H884   1.107       .  S
C879        H885   1.111       .  S
C882        H886   1.109       .  S
C882        H887   1.106       .  S
C882        H888   1.111       .  S
C889       C1890   1.399   1_455  A
C889        C894   1.396       .  A
C889        H896   1.085       .  S
C890       C1889   1.403       .  A
C890        C891   1.414       .  A
C891        C892   1.404       .  A
C891        C898   1.506       .  S
C892        C893   1.402       .  A
C892        H897   1.084       .  S
C893       C1894   1.413       .  A
C894       C1893   1.415   1_455  A
C894        C895   1.509       .  S
C895        H899   1.111       .  S
C895        H900   1.108       .  S
C895        H901   1.108       .  S
C898        H902   1.110       .  S
C898        H903   1.105       .  S
C898        H904   1.111       .  S
C905        C906   1.403       .  A
C905       C1910   1.403       .  A
C905       H1912   1.084       .  S
C906        C907   1.410       .  A
C907        C908   1.404       .  A
C907        C914   1.506       .  S
C908        C909   1.405       .  A
C908        H913   1.084       .  S
C909       C1910   1.410       .  A
C910       C1905   1.403       .  A
C910       C1909   1.410   1_455  A
C910        C911   1.506       .  S
C911        H915   1.111       .  S
C911        H916   1.111       .  S
C911        H917   1.106       .  S
H912       C1905   1.084       .  S
C914        H918   1.107       .  S
C914        H919   1.110       .  S
C914        H920   1.111       .  S
C921        C922   1.401       .  A
C921        C926   1.396       .  A
C921        H928   1.085       .  S
C922        C923   1.414   1_545  A
C923        C924   1.402       .  A
C923        C930   1.507       .  S
C924        C925   1.404   1_565  A
C924        H929   1.085       .  S
C925        C926   1.412       .  A
C926        C927   1.506       .  S
C927        H931   1.111       .  S
C930        H934   1.111       .  S
C930        H935   1.105       .  S
C930        H936   1.111       .  S
C937        C938   1.402       .  A
C937        C942   1.406       .  A
C938        C939   1.413   1_545  A
C939        C940   1.405       .  A
C939        C946   1.506       .  S
C940        C941   1.406   1_565  A
C940        H945   1.082       .  S
C941        C942   1.417       .  A
C943        H947   1.110       .  S
C943        H948   1.110       .  S
C943        H949   1.107       .  S
C946        H950   1.106       .  S
C946        H951   1.109       .  S
C946        H952   1.111       .  S
C953        C954   1.405       .  A
C953        C958   1.408   1_565  A
C953        H960   1.083   1_565  S
C955        C956   1.405       .  A
C955        C962   1.505       .  S
C956        H961   1.079       .  S
C957        C958   1.411   1_565  A
C958        C959   1.506       .  S
C959        H963   1.111       .  S
C959        H965   1.111       .  S
C962        H966   1.110       .  S
C962        H968   1.110       .  S
C969        C970   1.402       .  A
C969        C974   1.402       .  A
C969        H976   1.084   1_565  S
C971        C972   1.395       .  A
C971        C978   1.509       .  S
C972        H977   1.085       .  S
C973        C974   1.413       .  A
C974        C975   1.508   1_565  S
C975        H979   1.111       .  S
C975        H980   1.110       .  S
C975        H981   1.110       .  S
C978        H983   1.110       .  S
C978        H984   1.111       .  S
C985        C990   1.398       .  A
C985        H992   1.084       .  S
C986        C987   1.409       .  A
C987        C988   1.396       .  A
C987        C994   1.505       .  S
C988        C989   1.400       .  A
C988        H993   1.084       .  S
C990        C991   1.506       .  S
C991        H995   1.111       .  S
C991        H996   1.110       .  S
C991        H997   1.110       .  S
C994        H998   1.110       .  S
C994        H999   1.104       .  S
C994       H1000   1.111       .  S
N1001      C1505   1.353       .  A
N1001      C1002   1.354       .  A
N1001      C1704   1.446       .  S
C1002      C1503   1.384       .  A
C1002      C1720   1.472       .  S
C1003      C1502   1.384       .  A
C1003      C1004   1.371       .  A
C1003      H1006   1.082       .  S
C1004      C1005   1.378       .  A
C1004      H1007   1.082       .  S
C1005      N1501   1.353       .  A
C1005      C1236   1.461       .  S
N1008      C1012   1.352       .  A
N1008      C1009   1.353       .  A
N1008      C1191   1.449       .  S
C1009      C1010   1.382       .  A
C1009      C1172   1.464       .  S
C1010      C1011   1.372       .  A
C1010      H1013   1.082       .  S
C1011      C1012   1.379       .  A
C1011      H1014   1.082       .  S
C1012      C1239   1.460       .  S
N1015      C1019   1.358       .  A
N1015      C1016   1.357       .  A
N1015      C1127   1.449       .  S
C1016      C1017   1.382       .  A
C1016      C1140   1.470       .  S
C1017      C1018   1.370       .  A
C1017      H1020   1.082       .  S
C1018      C1019   1.380       .  A
C1018      H1021   1.082       .  S
C1019      C1159   1.470       .  S
N1022      C1026   1.356       .  A
N1022      C1023   1.353       .  A
N1022      C1108   1.444       .  S
C1023      C1024   1.383       .  A
C1023      C1095   1.474       .  S
C1024      C1025   1.374       .  A
C1024      H1027   1.082       .  S
C1025      C1026   1.379       .  A
C1025      H1028   1.082       .  S
C1026      C1156   1.469       .  S
O1029     Zr1041   2.443       .  S
O1029      C1031   1.289       .  A
O1030      C1031   1.282       .  A
C1031      C1223   1.467       .  S
O1032     Zr1294   2.441       .  S
O1032      C1034   1.288       .  A
O1033     Zr1568   2.436   1_545  S
O1033      C1034   1.288       .  A
C1034      C1124   1.483       .  S
O1035     Zr1044   2.421       .  S
O1035      C1037   1.283       .  A
O1036     Zr1567   2.415   1_545  S
O1036      C1037   1.284       .  A
C1037      C1143   1.468       .  S
O1038     Zr1291   2.453       .  S
O1038      C1040   1.289       .  A
O1039      C1040   1.289       .  A
C1040      C1207   1.482       .  S
Zr1041     O1288   2.454   1_554  S
Zr1041     O1542   2.437   1_554  S
Zr1041     O1043   2.435       .  S
Zr1041     O1547   2.372       .  S
Zr1041     O1798   2.371   1_554  S
Zr1041     O1321   2.374       .  S
Zr1041     O1073   2.371       .  S
O1042     Zr1541   2.434   1_546  S
O1042      H1085   0.990       .  S
O1043      H1084   0.990       .  S
O1043      H1088   0.990       .  S
Zr1044     O1282   2.424   1_554  S
Zr1044     O1046   2.433       .  S
Zr1044     O1072   2.374       .  S
Zr1044     O1324   2.367   1_554  S
O1045      H1336   0.990       .  S
O1045      H1089   0.990       .  S
O1046      H1079   0.990       .  S
O1047     Zr1541   2.376   1_545  S
O1048     Zr1791   2.371   1_545  S
O1048      H1075   0.965       .  S
O1049     Zr1311   2.443       .  S
O1049      C1051   1.288       .  A
O1050     Zr1068   2.431       .  S
O1050      C1051   1.287       .  A
C1051      C1092   1.476       .  S
O1052     Zr1064   2.455       .  S
O1052      C1054   1.290       .  A
O1053     Zr1067   2.431       .  S
O1053      C1054   1.287       .  A
C1054      C1188   1.483       .  S
O1055     Zr1314   2.441       .  S
O1055      C1057   1.288       .  A
O1056     Zr1068   2.405       .  S
O1056      C1057   1.282       .  A
C1057      C1175   1.460       .  S
O1058     Zr1061   2.453       .  S
O1058      C1060   1.289       .  A
O1059     Zr1067   2.431       .  S
O1059      C1060   1.287       .  A
C1060      C1111   1.479       .  S
Zr1061     O1299   2.440       .  S
Zr1061     O1062   2.436       .  S
Zr1061     O1069   2.367       .  S
Zr1061     O1070   2.375       .  S
O1062      H1082   0.990       .  S
O1062      H1087   0.990       .  S
O1063      H1083   0.990       .  S
Zr1064     O1305   2.439   1_554  S
Zr1064     O1065   2.435       .  S
Zr1064     O1566   2.434       .  S
Zr1064     O1070   2.372       .  S
Zr1064     O1069   2.372       .  S
Zr1064     O1824   2.375   1_554  S
Zr1064     O1572   2.363       .  S
O1065      H1081   0.990       .  S
O1066     Zr1564   2.435   1_545  S
O1066      H1080   0.990       .  S
O1066      H1090   0.990       .  S
Zr1067     O1536   2.417       .  S
Zr1067     O1070   2.374       .  S
Zr1067     O1572   2.378       .  S
Zr1068     O1533   2.442       .  S
Zr1068     O1319   2.393       .  S
Zr1068     O1574   2.387       .  S
O1069     Zr1318   2.393   1_554  S
O1069      H1077   0.965       .  S
O1071     Zr1291   2.375       .  S
O1072     Zr1564   2.362   1_545  S
O1072     Zr1567   2.382   1_545  S
O1072      H1076   0.966       .  S
O1073      H1078   0.966       .  S
O1074     Zr1294   2.369       .  S
O1074     Zr1814   2.365   1_545  S
O1074     Zr1568   2.382   1_545  S
H1086      O1295   0.990       .  S
C1091      C1092   1.402       .  A
C1091      C1096   1.401       .  A
C1091      H1098   1.084       .  S
C1093      C1100   1.501       .  S
C1094      C1095   1.401       .  A
C1095      C1096   1.411       .  A
C1096      C1097   1.507       .  S
C1097      H1101   1.111       .  S
C1097      H1102   1.108       .  S
C1097      H1103   1.110       .  S
C1100      H1104   1.108       .  S
C1100      H1105   1.110       .  S
C1100      H1106   1.111       .  S
C1107      C1108   1.404       .  A
C1107      C1112   1.406       .  A
C1107      H1114   1.083       .  S
C1108      C1109   1.414       .  A
C1109      C1110   1.404       .  A
C1109      C1116   1.504   1_655  S
C1110      C1111   1.402       .  A
C1110      H1115   1.085   1_655  S
C1111      C1112   1.412       .  A
C1112      C1113   1.504       .  S
C1113      H1117   1.111       .  S
C1113      H1118   1.109       .  S
C1113      H1119   1.110       .  S
C1116      H1120   1.110       .  S
C1116      H1122   1.110       .  S
C1123      C1128   1.405       .  A
C1123      H1130   1.085       .  S
C1124      C1125   1.415       .  A
C1125      C1126   1.402       .  A
C1125      C1132   1.506       .  S
C1126      C1127   1.404       .  A
C1126      H1131   1.082       .  S
C1128      C1129   1.504       .  S
C1129      H1133   1.111       .  S
C1129      H1134   1.107       .  S
C1129      H1135   1.110       .  S
C1132      H1136   1.109       .  S
C1132      H1137   1.107       .  S
C1132      H1138   1.111       .  S
C1139      C1144   1.398       .  A
C1139      H1146   1.085       .  S
C1140      C1141   1.412       .  A
C1141      C1142   1.402       .  A
C1141      C1148   1.506       .  S
C1142      C1143   1.403       .  A
C1142      H1147   1.084       .  S
C1144      C1145   1.508       .  S
C1145      H1149   1.111       .  S
C1145      H1150   1.108       .  S
C1145      H1151   1.109       .  S
C1148      H1152   1.110       .  S
C1148      H1153   1.104       .  S
C1148      H1154   1.111       .  S
C1155      C1156   1.401       .  A
C1156      C1157   1.409       .  A
C1157      C1158   1.400       .  A
C1157      C1164   1.506       .  S
C1158      C1159   1.402       .  A
C1158      H1163   1.084       .  S
C1160      C1161   1.506       .  S
C1161      H1165   1.111       .  S
C1161      H1166   1.110       .  S
C1161      H1167   1.107       .  S
C1164      H1168   1.107       .  S
C1164      H1169   1.110       .  S
C1164      H1170   1.111       .  S
C1171      C1172   1.399       .  A
C1171      C1176   1.395       .  A
C1171      H1178   1.084       .  S
C1172      C1173   1.413       .  A
C1173      C1174   1.400       .  A
C1173      C1180   1.508       .  S
C1174      C1175   1.400       .  A
C1174      H1179   1.085       .  S
C1175      C1176   1.407       .  A
C1176      C1177   1.503       .  S
C1177      H1181   1.111       .  S
C1177      H1682   1.110       .  S
C1177      H1433   1.109       .  S
C1180      H1184   1.110       .  S
C1180      H1185   1.107       .  S
C1180      H1186   1.111       .  S
H1182      C1677   1.106       .  S
H1183      C1427   1.109       .  S
C1187      C1188   1.403       .  A
C1187      C1192   1.406       .  A
C1187      H1694   1.085       .  S
C1188      C1189   1.412       .  A
C1189      C1190   1.407       .  A
C1189      C1196   1.505       .  S
C1190      C1191   1.405       .  A
C1190      H1195   1.081       .  S
C1191      C1192   1.417       .  A
C1192      C1693   1.505       .  S
C1193      C1692   1.504       .  S
C1193      H1197   1.110       .  S
C1193      H1198   1.111       .  S
C1193      H1199   1.107       .  S
H1194      C1687   1.085       .  S
C1196      H1200   1.107       .  S
C1196      H1201   1.110       .  S
C1196      H1202   1.111       .  S
C1203      C1204   1.407       .  A
C1203      C1208   1.410       .  A
C1203      H1210   1.083       .  S
C1204      N1501   1.447       .  S
C1204      C1705   1.414       .  A
C1205      C1704   1.415       .  A
C1205      C1206   1.402       .  A
C1205      C1212   1.504       .  S
C1206      C1707   1.398       .  A
C1206      H1211   1.077       .  S
C1207      C1706   1.399       .  A
C1207      C1208   1.412       .  A
C1208      C1209   1.505       .  S
C1209      H1213   1.111       .  S
C1209      H1714   1.110       .  S
C1209      H1215   1.111       .  S
C1212      H1216   1.111       .  S
C1212      H1717   1.104       .  S
C1212      H1218   1.110       .  S
H1214      C1709   1.110       .  S
H1217      C1712   1.106       .  S
C1219      C1220   1.403       .  A
C1219      C1224   1.403       .  A
C1219      H1226   1.084       .  S
C1220      C1721   1.413       .  A
C1220      C1502   1.472       .  S
C1221      C1720   1.414       .  A
C1221      C1222   1.395       .  A
C1221      C1228   1.509       .  S
C1222      C1723   1.399       .  A
C1222      H1227   1.085       .  S
C1223      C1722   1.398       .  A
C1223      C1224   1.413       .  A
C1224      C1225   1.506       .  S
C1225      H1229   1.111       .  S
C1225      H1230   1.110       .  S
C1225      H1231   1.107       .  S
C1228      H1732   1.107       .  S
C1228      H1233   1.110       .  S
C1228      H1234   1.111       .  S
H1232      C1728   1.107       .  S
C1235      C1736   1.399   1_545  A
C1235      C1240   1.399       .  A
C1235      H1242   1.084       .  S
C1236      C1735   1.399       .  A
C1236      C1237   1.409       .  A
C1237      C1238   1.397       .  A
C1237      C1244   1.506       .  S
C1238      C1239   1.399       .  A
C1238      H1243   1.084       .  S
C1239      C1740   1.407       .  A
C1240      C1739   1.408   1_545  A
C1240      C1241   1.506       .  S
C1241      H1245   1.111       .  S
C1241      H1246   1.109       .  S
C1241      H1247   1.110       .  S
C1244      H1248   1.110       .  S
C1244      H1249   1.108       .  S
C1244      H1250   1.111       .  S
N1251      C1755   1.354       .  A
N1251      C1252   1.356       .  A
N1251      C1954   1.447       .  S
C1252      C1753   1.385       .  A
C1252      C1970   1.476       .  S
C1253      C1752   1.385       .  A
C1253      C1254   1.372       .  A
C1253      H1256   1.082       .  S
C1254      C1255   1.378       .  A
C1254      H1257   1.082       .  S
C1255      N1751   1.354       .  A
C1255      C1486   1.465       .  S
N1258      C1262   1.353       .  A
N1258      C1259   1.354       .  A
N1258      C1441   1.448       .  S
C1259      C1260   1.381       .  A
C1259      C1422   1.465       .  S
C1260      C1261   1.371       .  A
C1260      H1263   1.082       .  S
C1261      C1262   1.380       .  A
C1261      H1264   1.082       .  S
C1262      C1489   1.462       .  S
N1265      C1269   1.356       .  A
N1265      C1266   1.356       .  A
N1265      C1377   1.444       .  S
C1266      C1267   1.383       .  A
C1266      C1390   1.477       .  S
C1267      C1268   1.374       .  A
C1267      H1270   1.082       .  S
C1268      C1269   1.380       .  A
C1268      H1271   1.082       .  S
C1269      C1409   1.473       .  S
N1272      C1276   1.355       .  A
N1272      C1273   1.350       .  A
N1272      C1358   1.444       .  S
C1273      C1274   1.382       .  A
C1273      C1345   1.469       .  S
C1274      C1275   1.375       .  A
C1274      H1277   1.082       .  S
C1275      C1276   1.380       .  A
C1275      H1278   1.082       .  S
C1276      C1406   1.468       .  S
O1279     Zr1291   2.449       .  S
O1279      C1281   1.290       .  A
O1280      C1281   1.284       .  A
C1281      C1473   1.471       .  S
O1282      C1284   1.284       .  A
O1283     Zr1818   2.442   1_545  S
O1283      C1284   1.290       .  A
C1284      C1374   1.479       .  S
O1285     Zr1294   2.431       .  S
O1285      C1287   1.285       .  A
O1286     Zr1817   2.430   1_545  S
O1286      C1287   1.287       .  A
C1287      C1393   1.477       .  S
O1288      C1290   1.289       .  A
O1289      C1290   1.287       .  A
C1290      C1457   1.479       .  S
Zr1291     O1792   2.435       .  S
Zr1291     O1293   2.436       .  S
Zr1291     O1797   2.374       .  S
Zr1291     O1548   2.376       .  S
Zr1291     O1323   2.372       .  S
O1292     Zr1791   2.435   1_545  S
O1292      H1335   0.990       .  S
O1293      H1334   0.990       .  S
O1293      H1338   0.990       .  S
Zr1294     O1296   2.435       .  S
Zr1294     O1322   2.375       .  S
O1295      H1339   0.990       .  S
O1296      H1329   0.990       .  S
O1297     Zr1791   2.375   1_545  S
O1298     Zr1541   2.374   1_546  S
O1298      H1325   0.964       .  S
O1299      C1301   1.288   1_554  A
O1300     Zr1318   2.415       .  S
O1300      C1301   1.284       .  A
C1301      C1342   1.468       .  S
O1302     Zr1314   2.451       .  S
O1302      C1304   1.289       .  A
O1303     Zr1317   2.432       .  S
O1303      C1304   1.287       .  A
C1304      C1438   1.481       .  S
O1305      C1307   1.288       .  A
O1306     Zr1318   2.406       .  S
O1306      C1307   1.282       .  A
C1307      C1425   1.460       .  S
O1308     Zr1311   2.450       .  S
O1308      C1310   1.289       .  A
O1309     Zr1317   2.427       .  S
O1309      C1310   1.286       .  A
C1310      C1361   1.477       .  S
Zr1311     O1312   2.436       .  S
Zr1311     O1319   2.372       .  S
Zr1311     O1320   2.378       .  S
O1312      H1332   0.990       .  S
O1312      H1337   0.990       .  S
O1313      H1333   0.990       .  S
Zr1314     O1315   2.434       .  S
Zr1314     O1816   2.436       .  S
Zr1314     O1320   2.374       .  S
Zr1314     O1319   2.369       .  S
Zr1314     O1574   2.370       .  S
Zr1314     O1822   2.368       .  S
O1315      H1331   0.990       .  S
O1316     Zr1814   2.434   1_545  S
O1316      H1330   0.990       .  S
O1316      H1340   0.990       .  S
Zr1317     O1786   2.422       .  S
Zr1317     O1320   2.381       .  S
Zr1317     O1822   2.383       .  S
Zr1318     O1783   2.439       .  S
Zr1318     O1824   2.384       .  S
O1319      H1327   0.965       .  S
O1322     Zr1814   2.360   1_545  S
O1322     Zr1817   2.378   1_545  S
O1322      H1326   0.965       .  S
O1323      H1328   0.966       .  S
O1324     Zr1564   2.369   1_546  S
O1324     Zr1818   2.385   1_545  S
C1341      C1342   1.401       .  A
C1341      C1346   1.399       .  A
C1341      H1348   1.084       .  S
C1343      C1350   1.502       .  S
C1344      C1345   1.399       .  A
C1345      C1346   1.410       .  A
C1346      C1347   1.507       .  S
C1347      H1351   1.111       .  S
C1347      H1352   1.108       .  S
C1347      H1353   1.110       .  S
C1350      H1354   1.108       .  S
C1350      H1355   1.110       .  S
C1350      H1356   1.111       .  S
C1357      C1358   1.404       .  A
C1357      C1362   1.405       .  A
C1357      H1364   1.082       .  S
C1358      C1359   1.414       .  A
C1359      C1360   1.403       .  A
C1359      C1366   1.504   1_655  S
C1360      C1361   1.402       .  A
C1360      H1365   1.085   1_655  S
C1361      C1362   1.412       .  A
C1362      C1363   1.504       .  S
C1363      H1367   1.111       .  S
C1363      H1368   1.108       .  S
C1363      H1369   1.110       .  S
C1366      H1370   1.110       .  S
C1366      H1372   1.111       .  S
C1373      C1378   1.404       .  A
C1373      H1380   1.085       .  S
C1374      C1375   1.417       .  A
C1375      C1376   1.401       .  A
C1375      C1382   1.508       .  S
C1376      C1377   1.402       .  A
C1376      H1381   1.083       .  S
C1378      C1379   1.504       .  S
C1379      H1383   1.111       .  S
C1379      H1384   1.107       .  S
C1379      H1385   1.110       .  S
C1382      H1386   1.108       .  S
C1382      H1387   1.108       .  S
C1382      H1388   1.111       .  S
C1389      C1394   1.397       .  A
C1389      H1396   1.084       .  S
C1390      C1391   1.413       .  A
C1391      C1392   1.407       .  A
C1391      C1398   1.506       .  S
C1392      C1393   1.405       .  A
C1392      H1397   1.084       .  S
C1394      C1395   1.508       .  S
C1395      H1399   1.111       .  S
C1395      H1400   1.108       .  S
C1395      H1401   1.109       .  S
C1398      H1402   1.110       .  S
C1398      H1403   1.105       .  S
C1398      H1404   1.110       .  S
C1405      C1406   1.400   1_455  A
C1406      C1407   1.409       .  A
C1407      C1408   1.400       .  A
C1407      C1414   1.507       .  S
C1408      C1409   1.401       .  A
C1408      H1413   1.084       .  S
C1410      C1411   1.506       .  S
C1411      H1415   1.111       .  S
C1411      H1416   1.110       .  S
C1411      H1417   1.107       .  S
C1414      H1418   1.107       .  S
C1414      H1419   1.110       .  S
C1414      H1420   1.110       .  S
C1421      C1422   1.400       .  A
C1421      C1426   1.395       .  A
C1421      H1428   1.084       .  S
C1422      C1423   1.414       .  A
C1423      C1424   1.401       .  A
C1423      C1430   1.508       .  S
C1424      C1425   1.401       .  A
C1424      H1429   1.085       .  S
C1425      C1426   1.407       .  A
C1426      C1427   1.505       .  S
C1427      H1431   1.111       .  S
C1427      H1932   1.109       .  S
C1430      H1434   1.111       .  S
C1430      H1435   1.106       .  S
C1430      H1436   1.110       .  S
H1432      C1927   1.110       .  S
C1437      C1438   1.403       .  A
C1437      C1442   1.406       .  A
C1437      H1944   1.085       .  S
C1438      C1439   1.412       .  A
C1439      C1440   1.406       .  A
C1439      C1446   1.505       .  S
C1440      C1441   1.405       .  A
C1440      H1445   1.082       .  S
C1441      C1442   1.416       .  A
C1442      C1943   1.505       .  S
C1443      C1942   1.504       .  S
C1443      H1447   1.111       .  S
C1443      H1448   1.110       .  S
C1443      H1449   1.107       .  S
H1444      C1937   1.085       .  S
C1446      H1450   1.107       .  S
C1446      H1451   1.110       .  S
C1446      H1452   1.111       .  S
C1453      C1454   1.406       .  A
C1453      C1458   1.409       .  A
C1453      H1460   1.083       .  S
C1454      N1751   1.445       .  S
C1454      C1955   1.414       .  A
C1455      C1954   1.416       .  A
C1455      C1456   1.402       .  A
C1455      C1462   1.506       .  S
C1456      C1957   1.399       .  A
C1456      H1461   1.079       .  S
C1457      C1956   1.399       .  A
C1457      C1458   1.412       .  A
C1458      C1459   1.506       .  S
C1459      H1463   1.111       .  S
C1459      H1964   1.110       .  S
C1459      H1465   1.111       .  S
C1462      H1466   1.110       .  S
C1462      H1967   1.106       .  S
C1462      H1468   1.110       .  S
H1464      C1959   1.110       .  S
H1467      C1962   1.106       .  S
C1469      C1470   1.403       .  A
C1469      C1474   1.404       .  A
C1469      H1476   1.083       .  S
C1470      C1971   1.414       .  A
C1470      C1752   1.476       .  S
C1471      C1970   1.414       .  A
C1471      C1472   1.397       .  A
C1471      C1478   1.509       .  S
C1472      C1973   1.401       .  A
C1472      H1477   1.085       .  S
C1473      C1972   1.400       .  A
C1473      C1474   1.414       .  A
C1474      C1475   1.507       .  S
C1475      H1479   1.111       .  S
C1475      H1480   1.110       .  S
C1475      H1481   1.109       .  S
C1478      H1982   1.108       .  S
C1478      H1483   1.110       .  S
C1478      H1484   1.111       .  S
H1482      C1978   1.108       .  S
C1485      C1986   1.401   1_545  A
C1485      C1490   1.400       .  A
C1485      H1492   1.084       .  S
C1486      C1985   1.401       .  A
C1486      C1487   1.409       .  A
C1487      C1488   1.397       .  A
C1487      C1494   1.504       .  S
C1488      C1489   1.398       .  A
C1488      H1493   1.085       .  S
C1489      C1990   1.408       .  A
C1490      C1989   1.408   1_545  A
C1490      C1491   1.506       .  S
C1491      H1495   1.111       .  S
C1491      H1496   1.107       .  S
C1491      H1497   1.110       .  S
C1494      H1498   1.110       .  S
C1494      H1499   1.104       .  S
C1494      H1500   1.111       .  S
N1501      C1502   1.354       .  A
C1503      C1504   1.372       .  A
C1503      H1506   1.082       .  S
C1504      C1505   1.378       .  A
C1504      H1507   1.082       .  S
C1505      C1736   1.462       .  S
N1508      C1512   1.355       .  A
N1508      C1509   1.356       .  A
N1508      C1691   1.450       .  S
C1509      C1510   1.383       .  A
C1509      C1672   1.468       .  S
C1510      C1511   1.369       .  A
C1510      H1513   1.082       .  S
C1511      C1512   1.377       .  A
C1511      H1514   1.082       .  S
C1512      C1739   1.461       .  S
N1515      C1519   1.360       .  A
N1515      C1516   1.356       .  A
N1515      C1627   1.446       .  S
C1516      C1517   1.381       .  A
C1516      C1640   1.474       .  S
C1517      C1518   1.372       .  A
C1517      H1520   1.082       .  S
C1518      C1519   1.381       .  A
C1518      H1521   1.082       .  S
C1519      C1659   1.478       .  S
N1522      C1526   1.358       .  A
N1522      C1523   1.355       .  A
N1522      C1608   1.442       .  S
C1523      C1524   1.383       .  A
C1523      C1595   1.481       .  S
C1524      C1525   1.375       .  A
C1524      H1527   1.082       .  S
C1525      C1526   1.380       .  A
C1525      H1528   1.082       .  S
C1526      C1656   1.478       .  S
O1529     Zr1541   2.443       .  S
O1529      C1531   1.290       .  A
O1530      C1531   1.283       .  A
C1531      C1723   1.471       .  S
O1532     Zr1794   2.423       .  S
O1532      C1534   1.284       .  A
O1533      C1534   1.290       .  A
C1534      C1624   1.479       .  S
O1535     Zr1544   2.425       .  S
O1535      C1537   1.285       .  A
O1536      C1537   1.285       .  A
C1537      C1643   1.468       .  S
O1538     Zr1791   2.454       .  S
O1538      C1540   1.289       .  A
O1539      C1540   1.286       .  A
C1540      C1707   1.477       .  S
Zr1541     O1788   2.449   1_554  S
Zr1541     O1543   2.436       .  S
Zr1541     O1821   2.369   1_554  S
Zr1541     O1573   2.368       .  S
O1542      H1585   0.990   1_556  S
O1543      H1584   0.990       .  S
O1543      H1588   0.990       .  S
Zr1544     O1782   2.431   1_554  S
Zr1544     O1546   2.433       .  S
Zr1544     O1572   2.375       .  S
Zr1544     O1824   2.368   1_554  S
O1545      H1836   0.990       .  S
O1545      H1589   0.990       .  S
O1546      H1579   0.990       .  S
O1548      H1575   0.965       .  S
O1549     Zr1811   2.440       .  S
O1549      C1551   1.288       .  A
O1550     Zr1568   2.436       .  S
O1550      C1551   1.288       .  A
C1551      C1592   1.479       .  S
O1552     Zr1564   2.450       .  S
O1552      C1554   1.289       .  A
O1553     Zr1567   2.429       .  S
O1553      C1554   1.286       .  A
C1554      C1688   1.481       .  S
O1555     Zr1814   2.432   1_545  S
O1555      C1557   1.287       .  A
O1556     Zr1568   2.410       .  S
O1556      C1557   1.284   1_565  A
C1557      C1675   1.467       .  S
O1558     Zr1561   2.449       .  S
O1558      C1560   1.289       .  A
O1559     Zr1567   2.429       .  S
O1559      C1560   1.287       .  A
C1560      C1611   1.477       .  S
Zr1561     O1799   2.443       .  S
Zr1561     O1562   2.435       .  S
Zr1561     O1569   2.366       .  S
Zr1561     O1570   2.375       .  S
O1562      H1582   0.990       .  S
O1562      H1587   0.990       .  S
O1563      H1583   0.990       .  S
Zr1564     O1805   2.435   1_564  S
Zr1564     O1565   2.433       .  S
Zr1564     O1570   2.373       .  S
Zr1564     O1569   2.372       .  S
O1565      H1581   0.990       .  S
O1566      H1580   0.990       .  S
O1566      H1590   0.990       .  S
Zr1567     O1570   2.377       .  S
Zr1568     O1819   2.387       .  S
O1569     Zr1818   2.393   1_554  S
O1569      H1577   0.965       .  S
O1571     Zr1791   2.374       .  S
O1572      H1576   0.966       .  S
O1573      H1578   0.966       .  S
O1574     Zr1794   2.368       .  S
H1586      O1795   0.990       .  S
C1591      C1592   1.403       .  A
C1591      C1596   1.403       .  A
C1591      H1598   1.084       .  S
C1593      C1600   1.501       .  S
C1594      C1595   1.402       .  A
C1595      C1596   1.413       .  A
C1596      C1597   1.508       .  S
C1597      H1601   1.111       .  S
C1597      H1602   1.108       .  S
C1597      H1603   1.111       .  S
C1600      H1604   1.109       .  S
C1600      H1605   1.110       .  S
C1600      H1606   1.111       .  S
C1607      C1608   1.404       .  A
C1607      C1612   1.406       .  A
C1607      H1614   1.084       .  S
C1608      C1609   1.413       .  A
C1609      C1610   1.402       .  A
C1609      C1616   1.504   1_655  S
C1610      C1611   1.401       .  A
C1610      H1615   1.085   1_655  S
C1611      C1612   1.413       .  A
C1612      C1613   1.504       .  S
C1613      H1617   1.111       .  S
C1613      H1618   1.109       .  S
C1613      H1619   1.110       .  S
C1616      H1620   1.110       .  S
C1616      H1622   1.111       .  S
C1623      C1628   1.404       .  A
C1623      H1630   1.085       .  S
C1624      C1625   1.418       .  A
C1625      C1626   1.403       .  A
C1625      C1632   1.508       .  S
C1626      C1627   1.402       .  A
C1626      H1631   1.083       .  S
C1628      C1629   1.504       .  S
C1629      H1633   1.111       .  S
C1629      H1634   1.107       .  S
C1629      H1635   1.110       .  S
C1632      H1636   1.109       .  S
C1632      H1637   1.106       .  S
C1632      H1638   1.111       .  S
C1639      C1644   1.397       .  A
C1639      H1646   1.085       .  S
C1640      C1641   1.412       .  A
C1641      C1642   1.403       .  A
C1641      C1648   1.506       .  S
C1642      C1643   1.402       .  A
C1642      H1647   1.084       .  S
C1644      C1645   1.509       .  S
C1645      H1649   1.111       .  S
C1645      H1650   1.107       .  S
C1645      H1651   1.108       .  S
C1648      H1652   1.110       .  S
C1648      H1653   1.106       .  S
C1648      H1654   1.110       .  S
C1655      C1656   1.403       .  A
C1656      C1657   1.410       .  A
C1657      C1658   1.403       .  A
C1657      C1664   1.506       .  S
C1658      C1659   1.404       .  A
C1658      H1663   1.084       .  S
C1660      C1661   1.506       .  S
C1661      H1665   1.111       .  S
C1661      H1666   1.110       .  S
C1661      H1667   1.104       .  S
C1664      H1668   1.107       .  S
C1664      H1669   1.110       .  S
C1664      H1670   1.111       .  S
C1671      C1672   1.401   1_545  A
C1671      C1676   1.394       .  A
C1671      H1678   1.085       .  S
C1672      C1673   1.412       .  A
C1673      C1674   1.401       .  A
C1673      C1680   1.507       .  S
C1674      C1675   1.404   1_565  A
C1674      H1679   1.085       .  S
C1675      C1676   1.412       .  A
C1676      C1677   1.506       .  S
C1677      H1681   1.111       .  S
C1677      H1933   1.107       .  S
C1680      H1684   1.111       .  S
C1680      H1685   1.106       .  S
C1680      H1686   1.111       .  S
H1683      C1927   1.109       .  S
C1687      C1688   1.404   1_545  A
C1687      C1692   1.408       .  A
C1688      C1689   1.411       .  A
C1689      C1690   1.403       .  A
C1689      C1696   1.506       .  S
C1690      C1691   1.406       .  A
C1690      H1695   1.081       .  S
C1691      C1692   1.417   1_565  A
C1693      H1697   1.110       .  S
C1693      H1698   1.109       .  S
C1693      H1699   1.107       .  S
C1696      H1700   1.107       .  S
C1696      H1701   1.110       .  S
C1696      H1702   1.111       .  S
C1703      C1704   1.406   1_545  A
C1703      C1708   1.406       .  A
C1703      H1710   1.083       .  S
C1705      C1706   1.402       .  A
C1705      C1712   1.505       .  S
C1706      H1711   1.077       .  S
C1707      C1708   1.410   1_565  A
C1708      C1709   1.506       .  S
C1709      H1713   1.111       .  S
C1709      H1715   1.110       .  S
C1712      H1716   1.110       .  S
C1712      H1718   1.111       .  S
C1719      C1720   1.402   1_545  A
C1719      C1724   1.405       .  A
C1719      H1726   1.084       .  S
C1721      C1722   1.393       .  A
C1721      C1728   1.508       .  S
C1722      H1727   1.085       .  S
C1723      C1724   1.415   1_565  A
C1724      C1725   1.507       .  S
C1725      H1729   1.111       .  S
C1725      H1730   1.110       .  S
C1725      H1731   1.109       .  S
C1728      H1733   1.110       .  S
C1728      H1734   1.111       .  S
C1735      C1740   1.398       .  A
C1735      H1742   1.084       .  S
C1736      C1737   1.409       .  A
C1737      C1738   1.396       .  A
C1737      C1744   1.506       .  S
C1738      C1739   1.398       .  A
C1738      H1743   1.084       .  S
C1740      C1741   1.506       .  S
C1741      H1745   1.111       .  S
C1741      H1746   1.110       .  S
C1741      H1747   1.110       .  S
C1744      H1748   1.110       .  S
C1744      H1749   1.107       .  S
C1744      H1750   1.111       .  S
N1751      C1752   1.355       .  A
C1753      C1754   1.372       .  A
C1753      H1756   1.082       .  S
C1754      C1755   1.379       .  A
C1754      H1757   1.082       .  S
C1755      C1986   1.467       .  S
N1758      C1762   1.354       .  A
N1758      C1759   1.353   1_565  A
N1758      C1941   1.447       .  S
C1759      C1760   1.380       .  A
C1759      C1922   1.465       .  S
C1760      C1761   1.372   1_545  A
C1760      H1763   1.082       .  S
C1761      C1762   1.381       .  A
C1761      H1764   1.082       .  S
C1762      C1989   1.465       .  S
N1765      C1769   1.360       .  A
N1765      C1766   1.358       .  A
N1765      C1877   1.448       .  S
C1766      C1767   1.382       .  A
C1766      C1890   1.475       .  S
C1767      C1768   1.371       .  A
C1767      H1770   1.082       .  S
C1768      C1769   1.380       .  A
C1768      H1771   1.082       .  S
C1769      C1909   1.475       .  S
N1772      C1776   1.357       .  A
N1772      C1773   1.354       .  A
N1772      C1858   1.444       .  S
C1773      C1774   1.383       .  A
C1773      C1845   1.478       .  S
C1774      C1775   1.376       .  A
C1774      H1777   1.082       .  S
C1775      C1776   1.380       .  A
C1775      H1778   1.082       .  S
C1776      C1906   1.475       .  S
O1779     Zr1791   2.437       .  S
O1779      C1781   1.288       .  A
O1780      C1781   1.285       .  A
C1781      C1973   1.471       .  S
O1782      C1784   1.285       .  A
O1783      C1784   1.289       .  A
C1784      C1874   1.482       .  S
O1785     Zr1794   2.429       .  S
O1785      C1787   1.285       .  A
O1786      C1787   1.285       .  A
C1787      C1893   1.474       .  S
O1788      C1790   1.288       .  A
O1789      C1790   1.288       .  A
C1790      C1957   1.479       .  S
Zr1791     O1793   2.437       .  S
Zr1791     O1823   2.381       .  S
O1792      H1835   0.990       .  S
O1793      H1834   0.990       .  S
O1793      H1838   0.991       .  S
Zr1794     O1796   2.434       .  S
Zr1794     O1822   2.371       .  S
O1795      H1839   0.990       .  S
O1796      H1829   0.990       .  S
O1798      H1825   0.965       .  S
O1799      C1801   1.289   1_554  A
O1800     Zr1818   2.425       .  S
O1800      C1801   1.286       .  A
C1801      C1842   1.477       .  S
O1802     Zr1814   2.437       .  S
O1802      C1804   1.286       .  A
O1803     Zr1817   2.437       .  S
O1803      C1804   1.288       .  A
C1804      C1938   1.478       .  S
O1805      C1807   1.287   1_545  A
O1806     Zr1818   2.408       .  S
O1806      C1807   1.282       .  A
C1807      C1925   1.458   1_565  S
O1808     Zr1811   2.448       .  S
O1808      C1810   1.289       .  A
O1809     Zr1817   2.428       .  S
O1809      C1810   1.287       .  A
C1810      C1861   1.476       .  S
Zr1811     O1812   2.435       .  S
Zr1811     O1819   2.370       .  S
Zr1811     O1820   2.376       .  S
O1812      H1832   0.990       .  S
O1812      H1837   0.990       .  S
O1813      H1833   0.990       .  S
Zr1814     O1815   2.433       .  S
Zr1814     O1820   2.374       .  S
Zr1814     O1819   2.369       .  S
O1815      H1831   0.990       .  S
O1816      H1830   0.990       .  S
O1816      H1840   0.990       .  S
Zr1817     O1820   2.377       .  S
O1819      H1827   0.965       .  S
O1822      H1826   0.966       .  S
O1823      H1828   0.966       .  S
C1841      C1842   1.402       .  A
C1841      C1846   1.401       .  A
C1841      H1848   1.084       .  S
C1843      C1850   1.502       .  S
C1844      C1845   1.402       .  A
C1845      C1846   1.412       .  A
C1846      C1847   1.507       .  S
C1847      H1851   1.111       .  S
C1847      H1852   1.108       .  S
C1847      H1853   1.110       .  S
C1850      H1854   1.110       .  S
C1850      H1855   1.110       .  S
C1850      H1856   1.111       .  S
C1857      C1858   1.404       .  A
C1857      C1862   1.404       .  A
C1857      H1864   1.083       .  S
C1858      C1859   1.414       .  A
C1859      C1860   1.403       .  A
C1859      C1866   1.504   1_655  S
C1860      C1861   1.402       .  A
C1860      H1865   1.085   1_655  S
C1861      C1862   1.411       .  A
C1862      C1863   1.505       .  S
C1863      H1867   1.111       .  S
C1863      H1868   1.108       .  S
C1863      H1869   1.110       .  S
C1866      H1870   1.110       .  S
C1866      H1872   1.110       .  S
C1873      C1878   1.402       .  A
C1873      H1880   1.085       .  S
C1874      C1875   1.416       .  A
C1875      C1876   1.402       .  A
C1875      C1882   1.508       .  S
C1876      C1877   1.403       .  A
C1876      H1881   1.082       .  S
C1878      C1879   1.505       .  S
C1879      H1883   1.111       .  S
C1879      H1884   1.107       .  S
C1879      H1885   1.110       .  S
C1882      H1886   1.109       .  S
C1882      H1887   1.107       .  S
C1882      H1888   1.111       .  S
C1889      C1894   1.399       .  A
C1889      H1896   1.085       .  S
C1890      C1891   1.412       .  A
C1891      C1892   1.406       .  A
C1891      C1898   1.506       .  S
C1892      C1893   1.405       .  A
C1892      H1897   1.084       .  S
C1894      C1895   1.508       .  S
C1895      H1899   1.111       .  S
C1895      H1900   1.108       .  S
C1895      H1901   1.109       .  S
C1898      H1902   1.110       .  S
C1898      H1903   1.106       .  S
C1898      H1904   1.110       .  S
C1905      C1906   1.404   1_455  A
C1906      C1907   1.410       .  A
C1907      C1908   1.401       .  A
C1907      C1914   1.506       .  S
C1908      C1909   1.402       .  A
C1908      H1913   1.084       .  S
C1910      C1911   1.506       .  S
C1911      H1915   1.111       .  S
C1911      H1916   1.110       .  S
C1911      H1917   1.105       .  S
C1914      H1918   1.107       .  S
C1914      H1919   1.110       .  S
C1914      H1920   1.111       .  S
C1921      C1922   1.399       .  A
C1921      C1926   1.393       .  A
C1921      H1928   1.084       .  S
C1922      C1923   1.414   1_545  A
C1923      C1924   1.401       .  A
C1923      C1930   1.508       .  S
C1924      C1925   1.401   1_565  A
C1924      H1929   1.085       .  S
C1925      C1926   1.406       .  A
C1926      C1927   1.505       .  S
C1927      H1931   1.111       .  S
C1930      H1934   1.110       .  S
C1930      H1935   1.108       .  S
C1930      H1936   1.111       .  S
C1937      C1938   1.400   1_545  A
C1937      C1942   1.402       .  A
C1938      C1939   1.414       .  A
C1939      C1940   1.407       .  A
C1939      C1946   1.506       .  S
C1940      C1941   1.405       .  A
C1940      H1945   1.083       .  S
C1941      C1942   1.417   1_565  A
C1943      H1947   1.111       .  S
C1943      H1948   1.110       .  S
C1943      H1949   1.107       .  S
C1946      H1950   1.107       .  S
C1946      H1951   1.110       .  S
C1946      H1952   1.111       .  S
C1953      C1954   1.407   1_545  A
C1953      C1958   1.407       .  A
C1953      H1960   1.083       .  S
C1955      C1956   1.402       .  A
C1955      C1962   1.506       .  S
C1956      H1961   1.079       .  S
C1957      C1958   1.411   1_565  A
C1958      C1959   1.506       .  S
C1959      H1963   1.111       .  S
C1959      H1965   1.110       .  S
C1962      H1966   1.111       .  S
C1962      H1968   1.110       .  S
C1969      C1970   1.403       .  A
C1969      C1974   1.403       .  A
C1969      H1976   1.083   1_565  S
C1971      C1972   1.398       .  A
C1971      C1978   1.508       .  S
C1972      H1977   1.085       .  S
C1973      C1974   1.413       .  A
C1974      C1975   1.507   1_565  S
C1975      H1979   1.111       .  S
C1975      H1980   1.110       .  S
C1975      H1981   1.109       .  S
C1978      H1983   1.110       .  S
C1978      H1984   1.111       .  S
C1985      C1990   1.400       .  A
C1985      H1992   1.084       .  S
C1986      C1987   1.409       .  A
C1987      C1988   1.398       .  A
C1987      C1994   1.506       .  S
C1988      C1989   1.400       .  A
C1988      H1993   1.084       .  S
C1990      C1991   1.506       .  S
C1991      H1995   1.111       .  S
C1991      H1996   1.109       .  S
C1991      H1997   1.110       .  S
C1994      H1998   1.110       .  S
C1994      H1999   1.106       .  S
C1994      H2000   1.111       .  S
