geometry optimzed in LAMMPS
_audit_creation_date              2020-11-30 
_audit_creation_method            'lammps2cif' 
_symmetry_space_group_name_H-M    'P1' 
_symmetry_Int_Tables_number       1 
_symmetry_cell_setting            triclinic 
loop_ 
_symmetry_equiv_pos_as_xyz 
  x,y,z 
_cell_length_a                    30.15867133865624 
_cell_length_b                    30.354903668848543 
_cell_length_c                    37.15134962793543 
_cell_angle_alpha                 89.24091670536802 
_cell_angle_beta                  90.51721537934954 
_cell_angle_gamma                 120.53078747079545 
loop_ 
_atom_site_label 
_atom_site_type_symbol 
_atom_site_fract_x 
_atom_site_fract_y 
_atom_site_fract_z 
_atom_site_charge 
C1          C  0.13689112  0.07108384  0.38481471     0.00290
C2          C  0.14908390  0.07279180  0.42165811     0.00290
C3          C  0.12580504  0.06261968  0.03589066     0.00290
C4          C  0.14760288  0.07281779  0.00183173     0.00290
O5          O  0.03661903  0.45566497  0.24976334    -0.74700
O6          O  0.44351722  0.36002412  0.18008089    -0.74730
O7          O  0.44970087  0.36729713  0.25336639    -0.74780
O8          O  0.02785952  0.45201203  0.17691972    -0.74830
O9          O  0.07353852  0.41303551  0.17348851    -0.74760
O10         O  0.99792496  0.33091006  0.25514417    -0.74740
O11         O  0.98975320  0.32136226  0.18073043    -0.74720
O12         O  0.08436879  0.41879750  0.24725085    -0.74780
Ni13       Ni  0.98779238  0.41009299  0.21498110     1.25410
Ni14       Ni  0.03806872  0.36947222  0.21408195     1.25360
C15         C  0.07363383  0.45009826  0.26158853     0.87480
C16         C  0.45354539  0.32669946  0.16755232     0.87410
C17         C  0.46376230  0.33897874  0.26903804     0.87440
C18         C  0.05972863  0.44381579  0.16066017     0.87610
C19         C  0.32617565  0.24957947  0.00571168     0.00290
C20         C  0.32840665  0.26026527  0.04265379     0.00290
C21         C  0.33693057  0.26737973  0.38820201     0.00290
C22         C  0.32669632  0.24921432  0.42340819     0.00290
C23         C  0.35077202  0.06396229  0.03797247     0.00290
C24         C  0.33562631  0.07306538  0.00440713     0.00290
C25         C  0.33707429  0.06393218  0.38707878     0.00290
C26         C  0.33042479  0.07150374  0.42314786     0.00290
O27         O  0.43913570  0.08575500  0.24706469    -0.74700
O28         O  0.01133194  0.06695101  0.17117600    -0.74730
O29         O  0.01180209  0.06221532  0.24589088    -0.74780
O30         O  0.44067539  0.09390822  0.17322024    -0.74830
O31         O  0.00076170  0.17670063  0.17634658    -0.74760
O32         O  0.07196881  0.14453470  0.24715303    -0.74740
O33         O  0.07160280  0.14969081  0.17355790    -0.74720
O34         O  0.99954401  0.16822648  0.25134327    -0.74780
Ni35       Ni  0.97359399  0.07423687  0.20917398     1.25410
Ni36       Ni  0.03808753  0.16278470  0.21212350     1.25360
C37         C  0.45954590  0.12817821  0.26372256     0.87480
C38         C  0.05141693  0.10585905  0.15838379     0.87410
C39         C  0.05079954  0.09976485  0.26118416     0.87440
C40         C  0.46142786  0.14001252  0.16113333     0.87610
O41         O  0.25192126  0.40995032  0.25357394    -0.74700
O42         O  0.24251136  0.32968438  0.17257054    -0.74730
O43         O  0.23526303  0.31649182  0.24692954    -0.74780
O44         O  0.25961676  0.42249058  0.17954681    -0.74830
O45         O  0.34373389  0.45188114  0.18126553    -0.74760
O46         O  0.32012722  0.34760408  0.24945920    -0.74740
O47         O  0.32689096  0.35938941  0.17587179    -0.74720
O48         O  0.33647719  0.44149317  0.25487178    -0.74780
Ni49       Ni  0.24419550  0.36851329  0.21310456     1.25410
Ni50       Ni  0.33479357  0.40112655  0.21569840     1.25360
C51         C  0.29553016  0.43569056  0.26930493     0.87480
C52         C  0.28424174  0.33649057  0.15866002     0.87410
C53         C  0.27456881  0.31767555  0.26126187     0.87440
C54         C  0.30449066  0.44922098  0.16570013     0.87610
C55         C  0.02338674  0.14898892  0.89173986     0.00290
C56         C  0.03780384  0.17485902  0.92451279     0.00290
C57         C  0.04556120  0.36442707  0.92186914     0.00650
C58         C  0.04178317  0.37702403  0.88562588     0.00290
C59         C  0.23046162  0.36674719  0.88739854     0.00290
C60         C  0.21943832  0.36026934  0.92378704     0.00290
C61         C  0.03366901  0.36515152  0.53928353     0.00290
C62         C  0.04141107  0.35883230  0.50333408     0.00290
O63         O  0.05528582  0.96864974  0.67886972    -0.74700
O64         O  0.04540072  0.04154124  0.75844312    -0.74730
O65         O  0.03520750  0.04360679  0.68441981    -0.74780
O66         O  0.06721417  0.96691302  0.75157665    -0.74830
O67         O  0.15102213  0.02438435  0.74679452    -0.74760
O68         O  0.11842309  0.10117243  0.68082621    -0.74740
O69         O  0.12914124  0.09924654  0.75413725    -0.74720
O70         O  0.13880244  0.02658924  0.67296380    -0.74780
Ni71       Ni  0.04781964  0.00321859  0.71866273     1.25410
Ni72       Ni  0.13738115  0.06491033  0.71360207     1.25360
C73         C  0.09755868  0.98725957  0.66154600     0.87480
C74         C  0.08577939  0.08111840  0.77027579     0.87410
C75         C  0.07243583  0.08245348  0.66879853     0.87440
C76         C  0.11402412  0.98429379  0.76139392     0.87610
C77         C  0.04392747  0.18150226  0.50897959     0.00290
C78         C  0.04296634  0.17160558  0.54631336     0.00290
C79         C  0.22285069  0.35762524  0.50171737     0.00290
C80         C  0.24383926  0.36925792  0.53609049     0.00290
O81         O  0.37262852  0.09119843  0.75656402    -0.74700
O82         O  0.29763858  0.02043913  0.67137143    -0.74730
O83         O  0.28459335  0.00649886  0.74467908    -0.74780
O84         O  0.38300732  0.11007973  0.68281714    -0.74830
O85         O  0.42635701  0.06878532  0.67987028    -0.74760
O86         O  0.33023570  0.96721628  0.74655762    -0.74740
O87         O  0.34020741  0.97818893  0.67284328    -0.74720
O88         O  0.41858308  0.05269883  0.75216386    -0.74780
Ni89       Ni  0.33289867  0.05868296  0.71382394     1.25410
Ni90       Ni  0.38029239  0.01515495  0.71257566     1.25360
C91         C  0.40445343  0.07873144  0.76989307     0.87480
C92         C  0.30942760  0.98928502  0.65718109     0.87410
C93         C  0.29457900  0.97421511  0.75899169     0.87440
C94         C  0.41857944  0.10481095  0.66915395     0.87610
O95         O  0.42640245  0.38219803  0.74437518    -0.74700
O96         O  0.31922338  0.35716858  0.67791373    -0.74730
O97         O  0.33107125  0.36397156  0.75117922    -0.74780
O98         O  0.41378392  0.37426495  0.67091859    -0.74830
O99         O  0.38301418  0.29038225  0.67389798    -0.74760
O100        O  0.30077539  0.27994733  0.75481992    -0.74740
O101        O  0.28880424  0.27297674  0.68091446    -0.74720
O102        O  0.39672941  0.29872095  0.74669832    -0.74780
Ni103      Ni  0.37366438  0.37242196  0.71095079     1.25410
Ni104      Ni  0.34124652  0.28250778  0.71434385     1.25360
C105        C  0.42617602  0.34367766  0.75896735     0.87480
C106        C  0.28982391  0.31181728  0.66629588     0.87410
C107        C  0.30525643  0.32095611  0.76762845     0.87440
C108        C  0.40861250  0.33331740  0.65741913     0.87610
O109        O  0.17428664  0.13701163  0.95128959    -0.74700
O110        O  0.21716110  0.27783545  0.92253941    -0.74730
O111        O  0.26585227  0.22699067  0.95259093    -0.74780
O112        O  0.12559520  0.18784474  0.92021905    -0.74830
O113        O  0.10387370  0.20420963  0.97287347    -0.74760
O114        O  0.24421940  0.24837028  0.00269634    -0.74740
O115        O  0.19343454  0.29597245  0.97350875    -0.74720
O116        O  0.15557723  0.15745923  0.00338856    -0.74780
Ni117      Ni  0.19622912  0.20708890  0.93453161     1.25410
Ni118      Ni  0.17379697  0.22688146  0.98999915     1.25360
C119        C  0.15981537  0.12464754  0.98413080     0.87480
C120        C  0.21032914  0.30949762  0.94140432     0.87410
C121        C  0.27727560  0.24224753  0.98522342     0.87440
C122        C  0.09174587  0.19020464  0.94007798     0.87610
O123        O  0.50554314  0.30095010  0.97308524    -0.74700
O124        O  0.41097634  0.15985403  0.00493261    -0.74730
O125        O  0.50836825  0.21104946  0.97333944    -0.74780
O126        O  0.40612284  0.24560294  0.00677650    -0.74830
O127        O  0.36592510  0.22911572  0.95464799    -0.74760
O128        O  0.46056595  0.18332467  0.92481980    -0.74740
O129        O  0.36449731  0.13863657  0.95541011    -0.74720
O130        O  0.46463993  0.27831521  0.92135009    -0.74780
Ni131      Ni  0.45894055  0.23028355  0.99142533     1.25410
Ni132      Ni  0.41315808  0.20732980  0.93694560     1.25360
C133        C  0.50262150  0.31273578  0.94000105     0.87480
C134        C  0.37158919  0.12626760  0.98710981     0.87410
C135        C  0.50047517  0.18995481  0.94237118     0.87440
C136        C  0.36783740  0.24093633  0.98798580     0.87610
O137        O  0.27042336  0.03797746  0.95508326    -0.74700
O138        O  0.13105789  0.44047927  0.92352684    -0.74730
O139        O  0.17936238  0.03847167  0.95383347    -0.74780
O140        O  0.21916894  0.44056036  0.92376439    -0.74830
O141        O  0.19647132  0.39712349  0.97498810    -0.74760
O142        O  0.15623363  0.49561009  0.00518714    -0.74740
O143        O  0.10678884  0.39755185  0.97434883    -0.74720
O144        O  0.24866469  0.49488417  0.00623700    -0.74780
Ni145      Ni  0.20061840  0.49051971  0.93726529     1.25410
Ni146      Ni  0.17672229  0.44556522  0.99240311     1.25360
C147        C  0.28282007  0.03304659  0.98740276     0.87480
C148        C  0.09666893  0.40192253  0.94132022     0.87410
C149        C  0.16147605  0.03380363  0.98575264     0.87440
C150        C  0.21148156  0.40104900  0.94227743     0.87610
O151        O  0.10420758  0.39660565  0.45202840    -0.74700
O152        O  0.24723780  0.49098950  0.42286741    -0.74730
O153        O  0.19283764  0.39262107  0.45179291    -0.74780
O154        O  0.15887467  0.49623384  0.41968426    -0.74830
O155        O  0.17508759  0.03414563  0.47211163    -0.74760
O156        O  0.21824853  0.43667172  0.50176251    -0.74740
O157        O  0.26653018  0.03559153  0.47261882    -0.74720
O158        O  0.12778874  0.43542071  0.50432088    -0.74780
Ni159      Ni  0.17509705  0.44326436  0.43451845     1.25410
Ni160      Ni  0.19731209  0.48635586  0.48967869     1.25360
C161        C  0.09339640  0.39850862  0.48526454     0.87480
C162        C  0.27968170  0.03042727  0.44105787     0.87410
C163        C  0.21127385  0.39753669  0.48359172     0.87440
C164        C  0.16190671  0.03282481  0.43885615     0.87610
O165        O  0.46042799  0.27595683  0.50400212    -0.74700
O166        O  0.36667866  0.13382036  0.47442305    -0.74730
O167        O  0.46549253  0.18869678  0.50880591    -0.74780
O168        O  0.36250033  0.22170124  0.47380665    -0.74830
O169        O  0.40703537  0.24575663  0.42348350    -0.74760
O170        O  0.50588649  0.20557703  0.45702390    -0.74740
O171        O  0.40794199  0.15705026  0.42268752    -0.74720
O172        O  0.50581341  0.29552313  0.45416320    -0.74780
Ni173      Ni  0.41277958  0.20430362  0.49225411     1.25410
Ni174      Ni  0.45769460  0.22640230  0.43740167     1.25360
C175        C  0.50021564  0.30840857  0.48565637     0.87480
C176        C  0.36995076  0.12300067  0.44139189     0.87410
C177        C  0.50349177  0.19272904  0.49054277     0.87440
C178        C  0.36745733  0.23898436  0.44163629     0.87610
O179        O  0.19493297  0.29280490  0.45268749    -0.74700
O180        O  0.14492639  0.15078845  0.42560121    -0.74730
O181        O  0.10245397  0.20486189  0.45610914    -0.74780
O182        O  0.23960335  0.23905765  0.42156390    -0.74830
O183        O  0.26390155  0.22443225  0.47417181    -0.74760
O184        O  0.12234113  0.17680792  0.50476170    -0.74740
O185        O  0.17505980  0.13250980  0.47383079    -0.74720
O186        O  0.21152550  0.27062189  0.50547822    -0.74780
Ni187      Ni  0.17005800  0.22229278  0.43693102     1.25410
Ni188      Ni  0.19370639  0.20072869  0.49166224     1.25360
C189        C  0.20875898  0.30455331  0.48559257     0.87480
C190        C  0.15548764  0.11989086  0.44221033     0.87410
C191        C  0.09080279  0.18677205  0.48822694     0.87440
C192        C  0.27432648  0.23669142  0.44081659     0.87610
C193        C  0.32909039  0.46649055  0.59839217    -0.20580
C194        C  0.29291801  0.46921236  0.62048345    -0.07140
C195        C  0.24552771  0.45748372  0.60531676     0.13720
C196        C  0.22991255  0.42945680  0.57334242    -0.20630
C197        C  0.26422207  0.42002270  0.55390975    -0.07150
C198        C  0.31624352  0.44703264  0.56363192     0.13710
C199        C  0.35741076  0.45673399  0.53690530    -0.23980
H200        H  0.36766716  0.48061869  0.60793782     0.15000
H201        H  0.18987917  0.41130946  0.56522625     0.15030
C202        C  0.21160422  0.47361904  0.62249092    -0.23930
H203        H  0.39644741  0.48171170  0.54823290     0.05240
H204        H  0.35335887  0.47667660  0.51293643     0.08470
H205        H  0.35421309  0.42078998  0.52807872     0.08470
H206        H  0.23320804  0.51546155  0.62712329     0.08450
H207        H  0.19592692  0.45258125  0.64826164     0.08450
H208        H  0.18060977  0.46696813  0.60354514     0.05230
C209        C  0.21048996  0.32516310  0.59399704    -0.20580
C210        C  0.24125869  0.33157300  0.56371357    -0.07140
C211        C  0.27963676  0.31793971  0.56718490     0.13720
C212        C  0.28835015  0.30282120  0.60109756    -0.20630
C213        C  0.26386255  0.30641780  0.63194687    -0.07150
C214        C  0.22393213  0.31686728  0.62848544     0.13710
C215        C  0.19776724  0.32183704  0.66125291    -0.23980
H216        H  0.17990812  0.33332336  0.59116266     0.15000
H217        H  0.31891816  0.29414626  0.60408798     0.15030
C218        C  0.31360264  0.32086046  0.53664603    -0.23930
H219        H  0.16779106  0.33118448  0.65403436     0.05240
H220        H  0.22637293  0.35308897  0.67856419     0.08470
H221        H  0.17949519  0.28537124  0.67682572     0.08470
H222        H  0.30597484  0.33541995  0.51127520     0.08450
H223        H  0.30756052  0.28220802  0.53177065     0.08450
H224        H  0.35458923  0.34640483  0.54379940     0.05230
C225        C  0.45556282  0.14107336  0.57290963    -0.20580
C226        C  0.50905331  0.17526597  0.57478078    -0.07140
C227        C  0.52991565  0.19387167  0.60998700     0.13720
C228        C  0.49995485  0.17126870  0.64086360    -0.20630
C229        C  0.44742999  0.13708160  0.63791967    -0.07150
C230        C  0.42439786  0.12784843  0.60349068     0.13710
C231        C  0.36727992  0.10268018  0.59869556    -0.23980
H232        H  0.43793003  0.12083254  0.54832689     0.15000
H233        H  0.51767194  0.18075122  0.66732699     0.15030
C234        C  0.08373738  0.23662634  0.61635482    -0.23930
H235        H  0.35596722  0.09828180  0.56983591     0.05240
H236        H  0.35332303  0.12611120  0.61166449     0.08470
H237        H  0.34863317  0.06484923  0.61125583     0.08470
H238        H  0.10204424  0.25614260  0.59080326     0.08450
H239        H  0.10696140  0.22338728  0.63082322     0.08450
H240        H  0.08295650  0.26399313  0.63514755     0.05230
C241        C  0.11022239  0.14306878  0.61799494    -0.20580
C242        C  0.06548586  0.10289406  0.63362571    -0.07140
C243        C  0.02152659  0.07723593  0.61082305     0.13720
C244        C  0.02474834  0.09206685  0.57446536    -0.20630
C245        C  0.06405958  0.14003625  0.56290709    -0.07150
C246        C  0.11007762  0.16237173  0.58356590     0.13710
C247        C  0.15910429  0.20807306  0.57140839    -0.23980
H248        H  0.14589492  0.16123073  0.63317645     0.15000
H249        H  0.99042732  0.07262352  0.55780861     0.15030
C250        C  0.96955754  0.03551663  0.62205646    -0.23930
H251        H  0.18483468  0.22682175  0.59450902     0.05240
H252        H  0.15124171  0.23591389  0.55763577     0.08470
H253        H  0.18035068  0.19588459  0.55386618     0.08470
H254        H  0.94273622  0.04987579  0.61926508     0.08450
H255        H  0.96563891  0.01939863  0.64925593     0.08450
H256        H  0.95675295  0.00531764  0.60214402     0.05230
C257        C  0.46222894  0.37272429  0.56242516    -0.20580
C258        C  0.48212421  0.34051167  0.55735613    -0.07140
C259        C  0.46546206  0.29818183  0.58113124     0.13720
C260        C  0.43976347  0.29572316  0.61283538    -0.20630
C261        C  0.43016946  0.33456594  0.62155323    -0.07150
C262        C  0.43735562  0.37085830  0.59459048     0.13710
C263        C  0.42109999  0.40913147  0.59996367    -0.23980
H264        H  0.47259431  0.40400107  0.54353433     0.15000
H265        H  0.42970217  0.26449772  0.63171909     0.15030
C266        C  0.97391993  0.25485155  0.57448560    -0.23930
H267        H  0.42713550  0.43201775  0.57510596     0.05240
H268        H  0.44459867  0.43434271  0.62211610     0.08470
H269        H  0.37981540  0.39025403  0.60700728     0.08470
H270        H  0.00477973  0.26434635  0.55472058     0.08450
H271        H  0.93715721  0.22178898  0.56507458     0.08450
H272        H  0.98408501  0.24364126  0.60017664     0.05230
C273        C  0.08283219  0.45421036  0.56250433    -0.20580
C274        C  0.07298394  0.40395752  0.56435912    -0.07140
C275        C  0.08276898  0.38693813  0.59733629     0.13720
C276        C  0.08945405  0.41391467  0.62896993    -0.20630
C277        C  0.09689552  0.46287207  0.62742187    -0.07150
C278        C  0.09766729  0.48470346  0.59333294     0.13710
C279        C  0.10739663  0.53761164  0.58992413    -0.23980
H280        H  0.07468291  0.46807428  0.53772556     0.15000
H281        H  0.09131771  0.39763477  0.65472711     0.15030
C282        C  0.08598410  0.34020481  0.60015641    -0.23930
H283        H  0.60781414  0.54961257  0.56147986     0.05240
H284        H  0.14445817  0.56514494  0.60288547     0.08470
H285        H  0.07500659  0.53644795  0.60352300     0.08470
H286        H  0.08416024  0.32340761  0.57349045     0.08450
H287        H  0.05479566  0.31334611  0.61822360     0.08450
H288        H  0.12326647  0.35063819  0.61276149     0.05230
C289        C  0.23227155  0.29076286  0.81061798    -0.20580
C290        C  0.28481314  0.32042207  0.80350928    -0.07140
C291        C  0.31815155  0.35122130  0.83122681     0.13720
C292        C  0.29872386  0.35739472  0.86309699    -0.20630
C293        C  0.24639106  0.33579880  0.86705369    -0.07150
C294        C  0.21290344  0.29834965  0.84264216     0.13710
C295        C  0.15708832  0.26680474  0.85010608    -0.23980
H296        H  0.20628051  0.26436510  0.79061978     0.15000
H297        H  0.32432994  0.38366832  0.88331341     0.15030
C298        C  0.37434690  0.37530399  0.82862301    -0.23930
H299        H  0.13517723  0.26852440  0.82656200     0.05240
H300        H  0.14505990  0.27876169  0.87446836     0.08470
H301        H  0.14997035  0.22783789  0.85491907     0.08470
H302        H  0.38905066  0.40024697  0.80446218     0.08450
H303        H  0.38113892  0.34303809  0.82820810     0.08450
H304        H  0.39434520  0.39856588  0.85252228     0.05230
C305        C  0.20250100  0.39124828  0.83226697    -0.20580
C306        C  0.23520739  0.40831553  0.86260012    -0.07140
C307        C  0.28301707  0.45429275  0.85909735     0.13720
C308        C  0.29783170  0.47741929  0.82510861    -0.20630
C309        C  0.27069924  0.45221449  0.79399701    -0.07150
C310        C  0.22129585  0.40972798  0.79746094     0.13710
C311        C  0.19085095  0.38240965  0.76447947    -0.23980
H312        H  0.16619176  0.35694051  0.83526036     0.15000
H313        H  0.33269416  0.51361428  0.82262743     0.15030
C314        C  0.32169504  0.47691356  0.88930938    -0.23930
H315        H  0.15378644  0.34785544  0.77133786     0.05240
H316        H  0.21317960  0.36997712  0.74819727     0.08470
H317        H  0.18311422  0.40852967  0.74794744     0.08470
H318        H  0.30848441  0.45450700  0.91463945     0.08450
H319        H  0.33036417  0.51642517  0.89463422     0.08450
H320        H  0.35771410  0.47817111  0.88151940     0.05230
C321        C  0.10161611  0.40811533  0.79434848    -0.20580
C322        C  0.12332929  0.46094765  0.79327962    -0.07140
C323        C  0.13664741  0.48770874  0.82585992     0.13720
C324        C  0.11416532  0.46060626  0.85773666    -0.20630
C325        C  0.08688200  0.40633380  0.85925406    -0.07150
C326        C  0.08741297  0.38130124  0.82716211     0.13710
C327        C  0.06579088  0.32497976  0.82561414    -0.23980
H328        H  0.09248746  0.38723049  0.76931564     0.15000
H329        H  0.11480362  0.48299392  0.88025134     0.15030
C330        C  0.17142910  0.04495581  0.82676910    -0.23930
H331        H  0.09194328  0.31491993  0.81250104     0.05240
H332        H  0.03115727  0.30805525  0.80832220     0.08470
H333        H  0.05825822  0.30872436  0.85314279     0.08470
H334        H  0.15577092  0.06426215  0.81006891     0.08450
H335        H  0.20979328  0.05518940  0.81609898     0.08450
H336        H  0.17678631  0.05986632  0.85459116     0.05230
C337        C  0.46576715  0.31568956  0.84988041    -0.20580
C338        C  0.49291361  0.36346019  0.86555485    -0.07140
C339        C  0.49151504  0.40346335  0.84699157     0.13720
C340        C  0.47931145  0.39871985  0.80996987    -0.20630
C341        C  0.45426037  0.35014787  0.79356246    -0.07150
C342        C  0.44389918  0.30733811  0.81552296     0.13710
C343        C  0.41037586  0.25253011  0.80377676    -0.23980
H344        H  0.46833950  0.28606185  0.86190148     0.15000
H345        H  0.48250994  0.43147654  0.79557445     0.15030
C346        C  0.50025035  0.44961511  0.86713953    -0.23930
H347        H  0.40593158  0.22494954  0.82514071     0.05240
H348        H  0.42709569  0.24508625  0.77972161     0.08470
H349        H  0.37063992  0.24420425  0.79829329     0.08470
H350        H  0.53687534  0.46762393  0.88197394     0.08450
H351        H  0.46931067  0.43797758  0.88737275     0.08450
H352        H  0.49977378  0.47828053  0.84870780     0.05230
C353        C  0.44949409  0.07409080  0.86519586    -0.20580
C354        C  0.47130510  0.12573198  0.87435995    -0.07140
C355        C  0.45943815  0.15619764  0.85179491     0.13720
C356        C  0.43119152  0.13694639  0.82033371    -0.20630
C357        C  0.42299031  0.09132697  0.80705810    -0.07150
C358        C  0.43175806  0.05849190  0.82992702     0.13710
C359        C  0.42551152  0.00863333  0.81735009    -0.23980
H360        H  0.95727783  0.04965970  0.88234361     0.15000
H361        H  0.42287074  0.16115673  0.80331112     0.15030
C362        C  0.48217110  0.21135905  0.85659805    -0.23930
H363        H  0.42990825  0.98711986  0.83999352     0.05240
H364        H  0.45537174  0.01611882  0.79706560     0.08470
H365        H  0.38698483  0.98374006  0.80555798     0.08470
H366        H  0.51722702  0.22879369  0.87354488     0.08450
H367        H  0.45082144  0.21394638  0.86927235     0.08450
H368        H  0.49200910  0.23050718  0.83002694     0.05230
C369        C  0.06358971  0.16606987  0.83145588    -0.20580
C370        C  0.05813015  0.14298738  0.86572003    -0.07140
C371        C  0.06679742  0.10140304  0.86847037     0.13720
C372        C  0.07793983  0.08312793  0.83710447    -0.20630
C373        C  0.08161946  0.10581851  0.80310906    -0.07150
C374        C  0.07581628  0.14870745  0.80052825     0.13710
C375        C  0.07918878  0.17422684  0.76473824    -0.23980
H376        H  0.05547800  0.19669216  0.82847425     0.15000
H377        H  0.08162660  0.04958443  0.83904948     0.15030
C378        C  0.05998445  0.07290064  0.90344160    -0.23930
H379        H  0.07301875  0.20713227  0.76745610     0.05240
H380        H  0.04942443  0.14635342  0.74609736     0.08470
H381        H  0.11788579  0.18865326  0.75288445     0.08470
H382        H  0.05356897  0.09129088  0.92669287     0.08450
H383        H  0.09460559  0.06996442  0.90906188     0.08450
H384        H  0.02582661  0.03421056  0.90179079     0.05230
C385        C  0.34219542  0.49232900  0.36218358    -0.20580
C386        C  0.31077683  0.51293258  0.36853995    -0.07140
C387        C  0.26628521  0.99576681  0.34650646     0.13720
C388        C  0.26093036  0.46847978  0.31514953    -0.20630
C389        C  0.29842046  0.45722132  0.30528286    -0.07150
C390        C  0.33640769  0.46449589  0.33089446     0.13710
C391        C  0.37077161  0.44289197  0.32596646    -0.23980
H392        H  0.37477475  0.50268736  0.37987891     0.15000
H393        H  0.22853543  0.45845776  0.29732862     0.15030
C394        C  0.22356498  0.00535919  0.35419170    -0.23930
H395        H  0.39777308  0.45386519  0.34876491     0.05240
H396        H  0.39258554  0.45658889  0.30089516     0.08470
H397        H  0.34868789  0.40103939  0.32434512     0.08470
H398        H  0.23388574  0.03567600  0.37423832     0.08450
H399        H  0.18979431  0.96902036  0.36356303     0.08450
H400        H  0.21233636  0.01636949  0.32890575     0.05230
C401        C  0.38505280  0.11658207  0.29674556    -0.20580
C402        C  0.43586504  0.12834772  0.29809313    -0.07140
C403        C  0.45898022  0.13223483  0.33228006     0.13720
C404        C  0.42764180  0.11503824  0.36317037    -0.20630
C405        C  0.37612773  0.10307136  0.36155335    -0.07150
C406        C  0.35823992  0.11113318  0.32834898     0.13710
C407        C  0.30991358  0.11216118  0.32513971    -0.23980
H408        H  0.36734871  0.11524700  0.27089748     0.15000
H409        H  0.44297221  0.10921365  0.38811605     0.15030
C410        C  0.51548759  0.15337678  0.33738169    -0.23930
H411        H  0.31792868  0.14834376  0.31225048     0.05240
H412        H  0.29288406  0.11028127  0.35177529     0.08470
H413        H  0.28374165  0.08074713  0.30717408     0.08470
H414        H  0.03687028  0.16585878  0.31174642     0.08450
H415        H  0.52179978  0.12430460  0.35084141     0.08450
H416        H  0.53121872  0.18727690  0.35508130     0.05230
C417        C  0.39202502  0.13663164  0.12403647    -0.20580
C418        C  0.44287718  0.14863331  0.12658807    -0.07140
C419        C  0.46938047  0.15205152  0.09454428     0.13720
C420        C  0.44063313  0.12667393  0.06375332    -0.20630
C421        C  0.38700009  0.10604855  0.06320257    -0.07150
C422        C  0.36574581  0.11925410  0.09144310     0.13710
C423        C  0.31835667  0.12071393  0.08546002    -0.23980
H424        H  0.37245161  0.13921382  0.14754583     0.15000
H425        H  0.45997133  0.12459346  0.04007328     0.15030
C426        C  0.02701269  0.18456772  0.09245603    -0.23930
H427        H  0.33032488  0.16015950  0.07793074     0.05240
H428        H  0.29522344  0.10817489  0.11033261     0.08470
H429        H  0.29670599  0.09841785  0.06189493     0.08470
H430        H  0.04564740  0.17373021  0.11351162     0.08450
H431        H  0.03848534  0.22513283  0.09668354     0.08450
H432        H  0.04166890  0.18167971  0.06578439     0.05230
C433        C  0.28041830  0.49731069  0.07686093    -0.20580
C434        C  0.32667151  0.51419121  0.05852225    -0.07140
C435        C  0.36018499  0.49921575  0.07289991     0.13720
C436        C  0.35446877  0.48203798  0.10879848    -0.20630
C437        C  0.31042526  0.47105225  0.12881735    -0.07150
C438        C  0.27016580  0.47276969  0.11041213     0.13710
C439        C  0.21638142  0.44896407  0.12515348    -0.23980
H440        H  0.25278065  0.00515853  0.06608742     0.15000
H441        H  0.38382773  0.47586555  0.12065855     0.15030
C442        C  0.40223143  0.50271179  0.04993290    -0.23930
H443        H  0.18992489  0.45149294  0.10550647     0.05240
H444        H  0.21653038  0.46812184  0.15043562     0.08470
H445        H  0.20037780  0.40743726  0.12997748     0.08470
H446        H  0.42830243  0.04198904  0.04087685     0.08450
H447        H  0.38517352  0.47971175  0.02535616     0.08450
H448        H  0.42505278  0.48931426  0.06478066     0.05230
C449        C  0.29076309  0.23675297  0.33064953    -0.20580
C450        C  0.29908403  0.26675429  0.36148782    -0.07140
C451        C  0.28590792  0.30539397  0.35967715     0.13720
C452        C  0.26748385  0.31383022  0.32693862    -0.20630
C453        C  0.26949242  0.29034571  0.29513025    -0.07150
C454        C  0.27999983  0.25047690  0.29702893     0.13710
C455        C  0.28206050  0.22418870  0.26350053    -0.23980
H456        H  0.29872249  0.20604947  0.33208508     0.15000
H457        H  0.25842605  0.34410516  0.32526936     0.15030
C458        C  0.29332409  0.34016300  0.39068856    -0.23930
H459        H  0.29142158  0.19397614  0.26970612     0.05240
H460        H  0.31224916  0.25234553  0.24508443     0.08470
H461        H  0.24419957  0.20632488  0.24958140     0.08470
H462        H  0.31086970  0.33296744  0.41463948     0.08450
H463        H  0.25555421  0.33510933  0.39830376     0.08450
H464        H  0.31871776  0.38066951  0.38292245     0.05230
C465        C  0.25439062  0.26146765  0.07334808    -0.20580
C466        C  0.30343607  0.28813686  0.05722128    -0.07140
C467        C  0.33671125  0.33884046  0.06698815     0.13720
C468        C  0.33002185  0.35452780  0.10061917    -0.20630
C469        C  0.28535492  0.32305006  0.12092231    -0.07150
C470        C  0.24386238  0.28060566  0.10413396     0.13710
C471        C  0.19067580  0.25294565  0.11997546    -0.23980
H472        H  0.22658669  0.22324684  0.06472540     0.15000
H473        H  0.36035424  0.39025585  0.11137362     0.15030
C474        C  0.38278161  0.37270463  0.04417221    -0.23930
H475        H  0.16347171  0.22031528  0.10308996     0.05240
H476        H  0.17564993  0.27951225  0.12153408     0.08470
H477        H  0.19178846  0.23861602  0.14731013     0.08470
H478        H  0.38101553  0.35555703  0.01761881     0.08450
H479        H  0.41821504  0.37957935  0.05782909     0.08450
H480        H  0.38408887  0.40886998  0.03872076     0.05230
C481        C  0.44138447  0.35547296  0.32897305    -0.20580
C482        C  0.44292858  0.32046458  0.30525439    -0.07140
C483        C  0.42338146  0.26981841  0.31667566     0.13720
C484        C  0.39517881  0.25314326  0.34878511    -0.20630
C485        C  0.38761205  0.28698236  0.36979990    -0.07150
C486        C  0.41745946  0.33943642  0.36251569     0.13710
C487        C  0.42432181  0.37802476  0.39018072    -0.23980
H488        H  0.46041403  0.39564584  0.32173649     0.15000
H489        H  0.37485498  0.21281362  0.35568887     0.15030
C490        C  0.42821157  0.23177804  0.29471068    -0.23930
H491        H  0.46602322  0.40452650  0.39504746     0.05240
H492        H  0.40643544  0.35954066  0.41626529     0.08470
H493        H  0.40670313  0.40004200  0.38077259     0.08470
H494        H  0.44606177  0.21538046  0.31222400     0.08450
H495        H  0.45233179  0.24661175  0.27053499     0.08450
H496        H  0.38962903  0.20308994  0.28497910     0.05230
C497        C  0.37280678  0.26299550  0.13853797    -0.20580
C498        C  0.42520062  0.29671132  0.13571386    -0.07140
C499        C  0.44841352  0.30623115  0.10145206     0.13720
C500        C  0.41720859  0.29224717  0.07051072    -0.20630
C501        C  0.36342198  0.25913811  0.07237398    -0.07150
C502        C  0.34268593  0.24121252  0.10784579     0.13710
C503        C  0.28827882  0.20021871  0.11499667    -0.23980
H504        H  0.35514130  0.25337814  0.16498328     0.15000
H505        H  0.43525651  0.31179078  0.04568334     0.15030
C506        C  0.50578701  0.33220830  0.09725000    -0.23930
H507        H  0.28784898  0.17043527  0.13273510     0.05240
H508        H  0.26847099  0.18243980  0.08957896     0.08470
H509        H  0.26788281  0.21571862  0.13008753     0.08470
H510        H  0.01977759  0.30835005  0.11021772     0.08450
H511        H  0.02455580  0.36964570  0.11022299     0.08450
H512        H  0.51744137  0.33787064  0.06849909     0.05230
C513        C  0.12825563  0.49111322  0.11667806    -0.20580
C514        C  0.07653790  0.46699171  0.12500127    -0.07140
C515        C  0.04103056  0.46469197  0.09882096     0.13720
C516        C  0.05850557  0.48365582  0.06411028    -0.20630
C517        C  0.11111465  0.01583646  0.05789553    -0.07150
C518        C  0.14597142  0.51722395  0.08394755     0.13710
C519        C  0.20208538  0.04945772  0.07867763    -0.23980
H520        H  0.15511010  0.49404423  0.13735752     0.15000
H521        H  0.03145657  0.98142253  0.04390610     0.15030
C522        C  0.98579747  0.44645572  0.10782119    -0.23930
H523        H  0.22225892  0.54159843  0.10049604     0.05240
H524        H  0.21562997  0.09022355  0.07906286     0.08470
H525        H  0.21260626  0.04206771  0.05216661     0.08470
H526        H  0.98358880  0.47026530  0.12931376     0.08450
H527        H  0.96544917  0.40577453  0.11620841     0.08450
H528        H  0.96574962  0.45115883  0.08453951     0.05230
C529        C  0.14570542  0.12069713  0.08721972    -0.20580
C530        C  0.11385750  0.09689707  0.05749237    -0.07140
C531        C  0.06257856  0.08546629  0.05919541     0.13720
C532        C  0.04177680  0.08631843  0.09280663    -0.20630
C533        C  0.07275897  0.10140703  0.12410959    -0.07150
C534        C  0.12516002  0.11796574  0.12126449     0.13710
C535        C  0.15781447  0.12709627  0.15442682    -0.23980
H536        H  0.18602328  0.13643387  0.08468456     0.15000
H537        H  0.00165460  0.07549685  0.09456805     0.15030
C538        C  0.03003150  0.07086678  0.02568209    -0.23930
H539        H  0.19683913  0.13513308  0.14756879     0.05240
H540        H  0.13982945  0.09206793  0.17158951     0.08470
H541        H  0.16119837  0.15924826  0.17030380     0.08470
H542        H  0.99770460  0.03109372  0.02790164     0.08450
H543        H  0.05224175  0.07337122  0.00134802     0.08450
H544        H  0.01539771  0.09740569  0.02140499     0.05230
C545        C  0.05658235  0.05465861  0.35733467    -0.20580
C546        C  0.10574046  0.09287512  0.36830429    -0.07140
C547        C  0.12938783  0.13823137  0.34688656     0.13720
C548        C  0.11135665  0.13806064  0.31202788    -0.20630
C549        C  0.06891151  0.09471112  0.29774467    -0.07150
C550        C  0.04007686  0.05325604  0.32159315     0.13710
C551        C  0.99078637  0.00851458  0.31041062    -0.23980
H552        H  0.03569473  0.02108869  0.37443944     0.15000
H553        H  0.13154013  0.17245177  0.29565780     0.15030
C554        C  0.17517638  0.18688966  0.35873652    -0.23930
H555        H  0.99573623  0.99055996  0.28635307     0.05240
H556        H  0.96458176  0.02326912  0.30463724     0.08470
H557        H  0.97530699  0.97892053  0.33186130     0.08470
H558        H  0.20373667  0.17905910  0.37149478     0.08450
H559        H  0.16284327  0.20734347  0.37680636     0.08450
H560        H  0.19320279  0.21323940  0.33578145     0.05230
C561        C  0.13710619  0.52950692  0.29092174    -0.20580
C562        C  0.10181611  0.47759370  0.29384307    -0.07140
C563        C  0.09085836  0.45390752  0.32822858     0.13720
C564        C  0.10479845  0.48453775  0.35874739    -0.20630
C565        C  0.14003454  0.03739890  0.35667232    -0.07150
C566        C  0.15962012  0.05850069  0.32174632     0.13710
C567        C  0.20452812  0.11109945  0.31583224    -0.23980
H568        H  0.14819182  0.54730142  0.26447350     0.15000
H569        H  0.08533893  0.46696022  0.38377308     0.15030
C570        C  0.06606522  0.39722165  0.33418408    -0.23930
H571        H  0.23114321  0.10891901  0.29688813     0.05240
H572        H  0.22437868  0.12787922  0.34153190     0.08470
H573        H  0.19338693  0.13611019  0.30163433     0.08470
H574        H  0.09397650  0.38925477  0.34817473     0.08450
H575        H  0.05507358  0.37558778  0.30887535     0.08450
H576        H  0.03223610  0.38325359  0.35195387     0.05230
C577        C  0.13688202  0.57108326  0.38481188     0.00290
C578        C  0.14907532  0.57279073  0.42165517     0.00290
C579        C  0.12580565  0.56262130  0.03588910     0.00290
C580        C  0.14760110  0.57281797  0.00182932     0.00290
O581        O  0.03661882  0.95566681  0.24976544    -0.74700
O582        O  0.44351552  0.86002698  0.18008192    -0.74730
O583        O  0.44969868  0.86730030  0.25336782    -0.74780
O584        O  0.02785941  0.95201385  0.17692124    -0.74830
O585        O  0.07353652  0.91303521  0.17349067    -0.74760
O586        O  0.99792059  0.83091098  0.25514573    -0.74740
O587        O  0.98974960  0.82136318  0.18073189    -0.74720
O588        O  0.08436617  0.91879676  0.24725312    -0.74780
Ni589      Ni  0.98779140  0.91009552  0.21498262     1.25410
Ni590      Ni  0.03806545  0.86947236  0.21408384     1.25360
C591        C  0.07363271  0.95009856  0.26159089     0.87480
C592        C  0.45354268  0.82670151  0.16755333     0.87410
C593        C  0.46375871  0.83898086  0.26903950     0.87440
C594        C  0.05972781  0.94381623  0.16066203     0.87610
C595        C  0.32617335  0.74957855  0.00571124     0.00290
C596        C  0.32840326  0.76026268  0.04265377     0.00290
C597        C  0.33692229  0.76737869  0.38820131     0.00290
C598        C  0.32668918  0.74921412  0.42340760     0.00290
C599        C  0.35077410  0.56396370  0.03796782     0.00290
C600        C  0.33562601  0.57306623  0.00440301     0.00290
C601        C  0.33706956  0.56393878  0.38707331     0.00290
C602        C  0.33042064  0.57150915  0.42314256     0.00290
O603        O  0.43913151  0.58576136  0.24705831    -0.74700
O604        O  0.01133076  0.56696047  0.17117079    -0.74730
O605        O  0.01179895  0.56222303  0.24588525    -0.74780
O606        O  0.44067346  0.59391681  0.17321421    -0.74830
O607        O  0.00075954  0.67670919  0.17634163    -0.74760
O608        O  0.07196491  0.64454251  0.24714956    -0.74740
O609        O  0.07160171  0.64970019  0.17355410    -0.74720
O610        O  0.99953896  0.66823298  0.25133820    -0.74780
Ni611      Ni  0.97359144  0.57424497  0.20916810     1.25410
Ni612      Ni  0.03808449  0.66279284  0.21211918     1.25360
C613        C  0.45954079  0.62818403  0.26371671     0.87480
C614        C  0.05141646  0.60586867  0.15837964     0.87410
C615        C  0.05079552  0.59977203  0.26117974     0.87440
C616        C  0.46142598  0.64002138  0.16112787     0.87610
O617        O  0.25191466  0.90994449  0.25357701    -0.74700
O618        O  0.24250140  0.82968219  0.17256922    -0.74730
O619        O  0.23525357  0.81648552  0.24692835    -0.74780
O620        O  0.25960861  0.92248880  0.17954999    -0.74830
O621        O  0.34372539  0.95187729  0.18126805    -0.74760
O622        O  0.32011750  0.84759572  0.24945706    -0.74740
O623        O  0.32688066  0.85938522  0.17587020    -0.74720
O624        O  0.33647018  0.94148497  0.25487342    -0.74780
Ni625      Ni  0.24418683  0.86850924  0.21310550     1.25410
Ni626      Ni  0.33478456  0.90112023  0.21569839     1.25360
C627        C  0.29552422  0.93568328  0.26930761     0.87480
C628        C  0.28423146  0.83648761  0.15865838     0.87410
C629        C  0.27455914  0.81766822  0.26126007     0.87440
C630        C  0.30448252  0.94921885  0.16570341     0.87610
C631        C  0.02338479  0.64899150  0.89173444     0.00290
C632        C  0.03780212  0.67486094  0.92450776     0.00290
C633        C  0.04556461  0.86442980  0.92186811     0.00650
C634        C  0.04178949  0.87702771  0.88562455     0.00290
C635        C  0.23046641  0.86674954  0.88739832     0.00290
C636        C  0.21944057  0.86027079  0.92378641     0.00290
C637        C  0.03366252  0.86515443  0.53928284     0.00290
C638        C  0.04140769  0.85883449  0.50333409     0.00290
O639        O  0.05527794  0.46864349  0.67886693    -0.74700
O640        O  0.04538996  0.54153628  0.75843893    -0.74730
O641        O  0.03519726  0.54359961  0.68441577    -0.74780
O642        O  0.06720428  0.46690821  0.75157440    -0.74830
O643        O  0.15101201  0.52438132  0.74679431    -0.74760
O644        O  0.11841282  0.60116544  0.68082196    -0.74740
O645        O  0.12913006  0.59924315  0.75413265    -0.74720
O646        O  0.13879512  0.52658300  0.67296364    -0.74780
Ni647      Ni  0.04780992  0.50321266  0.71865936     1.25410
Ni648      Ni  0.13737137  0.56490538  0.71359969     1.25360
C649        C  0.09755229  0.48725326  0.66154503     0.87480
C650        C  0.08576812  0.58111485  0.77027081     0.87410
C651        C  0.07242514  0.58244726  0.66879508     0.87440
C652        C  0.11401384  0.48429023  0.76139315     0.87610
C653        C  0.04391907  0.68150204  0.50897785     0.00290
C654        C  0.04295415  0.67160375  0.54631160     0.00290
C655        C  0.22284845  0.85762103  0.50172178     0.00290
C656        C  0.24383862  0.86925270  0.53609427     0.00290
O657        O  0.37261095  0.59120017  0.75656154    -0.74700
O658        O  0.29761403  0.52043930  0.67136970    -0.74730
O659        O  0.28457267  0.50650197  0.74467931    -0.74780
O660        O  0.38298569  0.61007832  0.68281295    -0.74830
O661        O  0.42632988  0.56877866  0.67986486    -0.74760
O662        O  0.33021369  0.46721796  0.74655810    -0.74740
O663        O  0.34017735  0.47818374  0.67284485    -0.74720
O664        O  0.41856343  0.55269882  0.75215910    -0.74780
Ni665      Ni  0.33287735  0.55868400  0.71382202     1.25410
Ni666      Ni  0.38026740  0.51515243  0.71257363     1.25360
C667        C  0.40443633  0.57873264  0.76988926     0.87480
C668        C  0.30940183  0.48928350  0.65718045     0.87410
C669        C  0.29455849  0.47421851  0.75899252     0.87440
C670        C  0.41855498  0.60480595  0.66914845     0.87610
O671        O  0.42640631  0.88220489  0.74437420    -0.74700
O672        O  0.31922011  0.85716742  0.67791631    -0.74730
O673        O  0.33107382  0.86397264  0.75118168    -0.74780
O674        O  0.41378247  0.87426954  0.67091768    -0.74830
O675        O  0.38301600  0.79038744  0.67389709    -0.74760
O676        O  0.30078367  0.77994940  0.75482273    -0.74740
O677        O  0.28880516  0.77297642  0.68091827    -0.74720
O678        O  0.39673885  0.79872886  0.74669588    -0.74780
Ni679      Ni  0.37366472  0.87242495  0.71095153     1.25410
Ni680      Ni  0.34125190  0.78251168  0.71434473     1.25360
C681        C  0.42618335  0.84368562  0.75896533     0.87480
C682        C  0.28982142  0.81181520  0.66629956     0.87410
C683        C  0.30526236  0.82095707  0.76763129     0.87440
C684        C  0.40861136  0.83332236  0.65741775     0.87610
O685        O  0.17428472  0.63701141  0.95128694    -0.74700
O686        O  0.21716022  0.77783557  0.92253821    -0.74730
O687        O  0.26585039  0.72699038  0.95258999    -0.74780
O688        O  0.12559374  0.68784502  0.92021542    -0.74830
O689        O  0.10387136  0.70421009  0.97286942    -0.74760
O690        O  0.24421621  0.74836868  0.00269542    -0.74740
O691        O  0.19343314  0.79597242  0.97350729    -0.74720
O692        O  0.15557359  0.65745841  0.00338548    -0.74780
Ni693      Ni  0.19622759  0.70708889  0.93452949     1.25410
Ni694      Ni  0.17379414  0.72688084  0.98999672     1.25360
C695        C  0.15981294  0.62464723  0.98412804     0.87480
C696        C  0.21032889  0.80949802  0.94140321     0.87410
C697        C  0.27727308  0.74224653  0.98522271     0.87440
C698        C  0.09174406  0.69020542  0.94007373     0.87610
O699        O  0.50554325  0.80095176  0.97308324    -0.74700
O700        O  0.41097547  0.65985510  0.00492818    -0.74730
O701        O  0.50836684  0.71105059  0.97333501    -0.74780
O702        O  0.40612231  0.74560415  0.00677493    -0.74830
O703        O  0.36592460  0.72911859  0.95464642    -0.74760
O704        O  0.46056494  0.68332805  0.92481496    -0.74740
O705        O  0.36449603  0.63863881  0.95540605    -0.74720
O706        O  0.46464032  0.77831927  0.92134783    -0.74780
Ni707      Ni  0.45893982  0.73028480  0.99142216     1.25410
Ni708      Ni  0.41315742  0.70733310  0.93694242     1.25360
C709        C  0.50262262  0.81273862  0.93999919     0.87480
C710        C  0.37158815  0.62626895  0.98710547     0.87410
C711        C  0.50047378  0.68995700  0.94236633     0.87440
C712        C  0.36783646  0.74093760  0.98798463     0.87610
O713        O  0.27042091  0.53797666  0.95508044    -0.74700
O714        O  0.13106126  0.94048144  0.92352776    -0.74730
O715        O  0.17935974  0.53847092  0.95383089    -0.74780
O716        O  0.21917232  0.94056248  0.92376456    -0.74830
O717        O  0.19647261  0.89712359  0.97498756    -0.74760
O718        O  0.15623690  0.99561057  0.00518975    -0.74740
O719        O  0.10679053  0.89755279  0.97434911    -0.74720
O720        O  0.24866603  0.99488255  0.00623884    -0.74780
Ni721      Ni  0.20062143  0.99052126  0.93726695     1.25410
Ni722      Ni  0.17672409  0.94556501  0.99240410     1.25360
C723        C  0.28281861  0.53304711  0.98739993     0.87480
C724        C  0.09667164  0.90192436  0.94132041     0.87410
C725        C  0.16147324  0.53380318  0.98574997     0.87440
C726        C  0.21148386  0.90105027  0.94227701     0.87610
O727        O  0.10420881  0.89660571  0.45203103    -0.74700
O728        O  0.24724113  0.99098554  0.42287290    -0.74730
O729        O  0.19283784  0.89261869  0.45179826    -0.74780
O730        O  0.15888007  0.99623356  0.41968797    -0.74830
O731        O  0.17508280  0.53414615  0.47210783    -0.74760
O732        O  0.21824604  0.93666695  0.50176941    -0.74740
O733        O  0.26652708  0.53559577  0.47261325    -0.74720
O734        O  0.12778828  0.93541927  0.50432407    -0.74780
Ni735      Ni  0.17509964  0.94326270  0.43452287     1.25410
Ni736      Ni  0.19731338  0.98635319  0.48968359     1.25360
C737        C  0.09339576  0.89850874  0.48526667     0.87480
C738        C  0.27967815  0.53043172  0.44105228     0.87410
C739        C  0.21127232  0.89753304  0.48359751     0.87440
C740        C  0.16190046  0.53282468  0.43885260     0.87610
O741        O  0.46042263  0.77595983  0.50399951    -0.74700
O742        O  0.36667417  0.63382339  0.47441911    -0.74730
O743        O  0.46548669  0.68869924  0.50880282    -0.74780
O744        O  0.36249466  0.72170276  0.47380515    -0.74830
O745        O  0.40703102  0.74576124  0.42348260    -0.74760
O746        O  0.50588137  0.70557940  0.45702118    -0.74740
O747        O  0.40793768  0.65705535  0.42268364    -0.74720
O748        O  0.50581030  0.79552659  0.45416189    -0.74780
Ni749      Ni  0.41277439  0.70430616  0.49225135     1.25410
Ni750      Ni  0.45769046  0.72640638  0.43739937     1.25360
C751        C  0.50021175  0.80841158  0.48565498     0.87480
C752        C  0.36994639  0.62300514  0.44138754     0.87410
C753        C  0.50348558  0.69273070  0.49054001     0.87440
C754        C  0.36745181  0.73898661  0.44163523     0.87610
O755        O  0.19492813  0.79280332  0.45269035    -0.74700
O756        O  0.14491835  0.65078767  0.42559971    -0.74730
O757        O  0.10244757  0.70486187  0.45610896    -0.74780
O758        O  0.23959630  0.73905676  0.42156417    -0.74830
O759        O  0.26389328  0.72442767  0.47417136    -0.74760
O760        O  0.12233182  0.67680442  0.50476109    -0.74740
O761        O  0.17504999  0.63250601  0.47382889    -0.74720
O762        O  0.21151931  0.77061670  0.50548029    -0.74780
Ni763      Ni  0.17005139  0.72229200  0.43693143     1.25410
Ni764      Ni  0.19369781  0.70072414  0.49166202     1.25360
C765        C  0.20875441  0.80454966  0.48559566     0.87480
C766        C  0.15547868  0.61988892  0.44220814     0.87410
C767        C  0.09079490  0.68677077  0.48822629     0.87440
C768        C  0.27431903  0.73668945  0.44081644     0.87610
C769        C  0.32910590  0.96649846  0.59838588    -0.20580
C770        C  0.29293583  0.96921072  0.62048567    -0.07140
C771        C  0.24553417  0.95746491  0.60533051     0.13720
C772        C  0.22991700  0.92944636  0.57335266    -0.20630
C773        C  0.26422443  0.92001771  0.55391332    -0.07150
C774        C  0.31624882  0.94703298  0.56362777     0.13710
C775        C  0.35740851  0.95673194  0.53689496    -0.23980
H776        H  0.36768745  0.98063682  0.60792413     0.15000
H777        H  0.18988150  0.91129424  0.56524079     0.15030
C778        C  0.21159393  0.97356375  0.62252420    -0.23930
H779        H  0.39644845  0.98171447  0.54821619     0.05240
H780        H  0.35334686  0.97666791  0.51292581     0.08470
H781        H  0.35421094  0.92078695  0.52807043     0.08470
H782        H  0.23317655  0.01540355  0.62716739     0.08450
H783        H  0.19592799  0.95250669  0.64829022     0.08450
H784        H  0.18059210  0.96690568  0.60358462     0.05230
C785        C  0.21048386  0.82515448  0.59399982    -0.20580
C786        C  0.24125473  0.83156618  0.56371695    -0.07140
C787        C  0.27963288  0.81793335  0.56718872     0.13720
C788        C  0.28834646  0.80281580  0.60110159    -0.20630
C789        C  0.26385851  0.80641265  0.63195062    -0.07150
C790        C  0.22392586  0.81685896  0.62848847     0.13710
C791        C  0.19775731  0.82182454  0.66125528    -0.23980
H792        H  0.17989959  0.83331204  0.59116536     0.15000
H793        H  0.31891528  0.79414208  0.60409237     0.15030
C794        C  0.31359889  0.82085445  0.53664979    -0.23930
H795        H  0.16777941  0.83116935  0.65403579     0.05240
H796        H  0.22636048  0.85307656  0.67856766     0.08470
H797        H  0.17948649  0.78535787  0.67682706     0.08470
H798        H  0.30596947  0.83541180  0.51127859     0.08450
H799        H  0.30755856  0.78220249  0.53177512     0.08450
H800        H  0.35458527  0.84640094  0.54380236     0.05230
C801        C  0.45554739  0.64107012  0.57290432    -0.20580
C802        C  0.50903799  0.67526275  0.57477773    -0.07140
C803        C  0.52989692  0.69386658  0.60998501     0.13720
C804        C  0.49993258  0.67126336  0.64086028    -0.20630
C805        C  0.44740789  0.63707641  0.63791426    -0.07150
C806        C  0.42437927  0.62784337  0.60348404     0.13710
C807        C  0.36726169  0.60267320  0.59868634    -0.23980
H808        H  0.43791698  0.62083046  0.54832073     0.15000
H809        H  0.51764713  0.68074502  0.66732448     0.15030
C810        C  0.08371933  0.73661843  0.61635570    -0.23930
H811        H  0.35595106  0.59827247  0.56982622     0.05240
H812        H  0.35330240  0.62610377  0.61165283     0.08470
H813        H  0.34861564  0.56484342  0.61124812     0.08470
H814        H  0.10202993  0.75613610  0.59080532     0.08450
H815        H  0.10693970  0.72337578  0.63082501     0.08450
H816        H  0.08293896  0.76398515  0.63514878     0.05230
C817        C  0.11021032  0.64306346  0.61799220    -0.20580
C818        C  0.06547373  0.60289042  0.63362385    -0.07140
C819        C  0.02151098  0.57723700  0.61082357     0.13720
C820        C  0.02473285  0.59206548  0.57446545    -0.20630
C821        C  0.06404558  0.64003370  0.56290616    -0.07150
C822        C  0.11006436  0.66236827  0.58356423     0.13710
C823        C  0.15909094  0.70807033  0.57140757    -0.23980
H824        H  0.14588397  0.66122319  0.63317248     0.15000
H825        H  0.99041132  0.57262225  0.55780921     0.15030
C826        C  0.96954213  0.53551736  0.62205789    -0.23930
H827        H  0.18482030  0.72681872  0.59450873     0.05240
H828        H  0.15122843  0.73591106  0.55763457     0.08470
H829        H  0.18033886  0.69588252  0.55386637     0.08470
H830        H  0.94271790  0.54987229  0.61926003     0.08450
H831        H  0.96562322  0.51940787  0.64926026     0.08450
H832        H  0.95674094  0.50531265  0.60215046     0.05230
C833        C  0.46222393  0.87272954  0.56242329    -0.20580
C834        C  0.48211621  0.84051458  0.55735292    -0.07140
C835        C  0.46545097  0.79818262  0.58112668     0.13720
C836        C  0.43975545  0.79572563  0.61283176    -0.20630
C837        C  0.43016503  0.83457023  0.62155095    -0.07150
C838        C  0.43735010  0.87086246  0.59458860     0.13710
C839        C  0.42109051  0.90913247  0.59996191    -0.23980
H840        H  0.47259141  0.90400801  0.54353358     0.15000
H841        H  0.42969340  0.76449957  0.63171503     0.15030
C842        C  0.97390482  0.75484972  0.57448020    -0.23930
H843        H  0.42712460  0.93201852  0.57510433     0.05240
H844        H  0.44458667  0.93434305  0.62211511     0.08470
H845        H  0.37980569  0.89025230  0.60700515     0.08470
H846        H  0.00476695  0.76434420  0.55471736     0.08450
H847        H  0.93714190  0.72178987  0.56506654     0.08450
H848        H  0.98406492  0.74363467  0.60017126     0.05230
C849        C  0.08284180  0.95421520  0.56250575    -0.20580
C850        C  0.07297643  0.90395603  0.56436178    -0.07140
C851        C  0.08274884  0.88693056  0.59734091     0.13720
C852        C  0.08943085  0.91390692  0.62897412    -0.20630
C853        C  0.09689820  0.96287459  0.62742369    -0.07150
C854        C  0.09769252  0.98471278  0.59333294     0.13710
C855        C  0.10747787  0.03764143  0.58991804    -0.23980
H856        H  0.07470459  0.96808620  0.53772558     0.15000
H857        H  0.09128130  0.89762202  0.65473247     0.15030
C858        C  0.08596228  0.84019587  0.60016201    -0.23930
H859        H  0.60790991  0.04964254  0.56147199     0.05240
H860        H  0.14455007  0.06515082  0.60287811     0.08470
H861        H  0.07510933  0.03652360  0.60351368     0.08470
H862        H  0.08413928  0.82339898  0.57349615     0.08450
H863        H  0.05477278  0.81333696  0.61822865     0.08450
H864        H  0.12324492  0.85062729  0.61276675     0.05230
C865        C  0.23227676  0.79076396  0.81061898    -0.20580
C866        C  0.28481886  0.82042130  0.80351199    -0.07140
C867        C  0.31815671  0.85121861  0.83123033     0.13720
C868        C  0.29872798  0.85739301  0.86309966    -0.20630
C869        C  0.24639507  0.83579992  0.86705427    -0.07150
C870        C  0.21290760  0.79835148  0.84264221     0.13710
C871        C  0.15709151  0.76680872  0.85010404    -0.23980
H872        H  0.20628620  0.76436771  0.79061989     0.15000
H873        H  0.32433360  0.88366583  0.88331661     0.15030
C874        C  0.37435214  0.87530025  0.82862733    -0.23930
H875        H  0.13518290  0.76853001  0.82655898     0.05240
H876        H  0.14506244  0.77876632  0.87446567     0.08470
H877        H  0.14997044  0.72784072  0.85491688     0.08470
H878        H  0.38905635  0.90024419  0.80446697     0.08450
H879        H  0.38114419  0.84303435  0.82821145     0.08450
H880        H  0.39435000  0.89856086  0.85252720     0.05230
C881        C  0.20251192  0.89125324  0.83226526    -0.20580
C882        C  0.23521586  0.90831919  0.86259977    -0.07140
C883        C  0.28302796  0.95429353  0.85909740     0.13720
C884        C  0.29784794  0.97741626  0.82510790    -0.20630
C885        C  0.27071789  0.95221050  0.79399586    -0.07150
C886        C  0.22131094  0.90972911  0.79745925     0.13710
C887        C  0.19086518  0.88241253  0.76447767    -0.23980
H888        H  0.16620033  0.85694814  0.83525829     0.15000
H889        H  0.33271095  0.01361022  0.82262707     0.15030
C890        C  0.32170266  0.97691462  0.88931126    -0.23930
H891        H  0.15379708  0.84786260  0.77133613     0.05240
H892        H  0.21318990  0.86997365  0.74819707     0.08470
H893        H  0.18313482  0.90853585  0.74794425     0.08470
H894        H  0.30848757  0.95451056  0.91464208     0.08450
H895        H  0.33037445  0.01642785  0.89463301     0.08450
H896        H  0.35772103  0.97816804  0.88152507     0.05230
C897        C  0.10162726  0.90811882  0.79434849    -0.20580
C898        C  0.12334059  0.96095108  0.79327981    -0.07140
C899        C  0.13665827  0.98771183  0.82586019     0.13720
C900        C  0.11417458  0.96060932  0.85773655    -0.20630
C901        C  0.08688999  0.90633681  0.85925375    -0.07150
C902        C  0.08742201  0.88130436  0.82716197     0.13710
C903        C  0.06579880  0.82498283  0.82561356    -0.23980
H904        H  0.09249957  0.88723431  0.76931553     0.15000
H905        H  0.11481249  0.98299733  0.88025083     0.15030
C906        C  0.17141746  0.54495286  0.82676847    -0.23930
H907        H  0.09195108  0.81492264  0.81250054     0.05240
H908        H  0.03116577  0.80805982  0.80832106     0.08470
H909        H  0.05826496  0.80872686  0.85314204     0.08470
H910        H  0.15575885  0.56425859  0.81006799     0.08450
H911        H  0.20978179  0.55518690  0.81609838     0.08450
H912        H  0.17677450  0.55986370  0.85459042     0.05230
C913        C  0.46577521  0.81569609  0.84987747    -0.20580
C914        C  0.49292165  0.86346612  0.86555233    -0.07140
C915        C  0.49152444  0.90347025  0.84698948     0.13720
C916        C  0.47931963  0.89872741  0.80996795    -0.20630
C917        C  0.45426845  0.85015582  0.79356007    -0.07150
C918        C  0.44390724  0.80734555  0.81552012     0.13710
C919        C  0.41038119  0.75253769  0.80377446    -0.23980
H920        H  0.46834708  0.78606872  0.86189867     0.15000
H921        H  0.48251765  0.93148423  0.79557306     0.15030
C922        C  0.50026106  0.94962182  0.86713810    -0.23930
H923        H  0.40593459  0.72495694  0.82513878     0.05240
H924        H  0.42709979  0.74509174  0.77971955     0.08470
H925        H  0.37064600  0.74421415  0.79829102     0.08470
H926        H  0.53688520  0.96762842  0.88197347     0.08450
H927        H  0.46932063  0.93798489  0.88737060     0.08450
H928        H  0.49978736  0.97828882  0.84870660     0.05230
C929        C  0.44949037  0.57409406  0.86518881    -0.20580
C930        C  0.47130336  0.62573542  0.87435328    -0.07140
C931        C  0.45943659  0.65620178  0.85178897     0.13720
C932        C  0.43118508  0.63695052  0.82032937    -0.20630
C933        C  0.42297769  0.59132891  0.80705370    -0.07150
C934        C  0.43174743  0.55849377  0.82992122     0.13710
C935        C  0.42549684  0.50863377  0.81734368    -0.23980
H936        H  0.95727494  0.54966246  0.88233531     0.15000
H937        H  0.42286451  0.66116172  0.80330764     0.15030
C938        C  0.48217128  0.71136296  0.85659263    -0.23930
H939        H  0.42989963  0.48712215  0.83998571     0.05240
H940        H  0.45535179  0.51611695  0.79705531     0.08470
H941        H  0.38696688  0.48374002  0.80555636     0.08470
H942        H  0.51722656  0.72879607  0.87354004     0.08450
H943        H  0.45082208  0.71395079  0.86926714     0.08450
H944        H  0.49201034  0.73051124  0.83002159     0.05230
C945        C  0.06358942  0.66607356  0.83145134    -0.20580
C946        C  0.05812818  0.64298976  0.86571522    -0.07140
C947        C  0.06679145  0.60140291  0.86846511     0.13720
C948        C  0.07792896  0.58312485  0.83709884    -0.20630
C949        C  0.08160879  0.60581565  0.80310362    -0.07150
C950        C  0.07581109  0.64870793  0.80052314     0.13710
C951        C  0.07918339  0.67422712  0.76473306    -0.23980
H952        H  0.05548092  0.69669815  0.82847032     0.15000
H953        H  0.08161183  0.54957903  0.83904349     0.15030
C954        C  0.05997899  0.57290087  0.90343640    -0.23930
H955        H  0.07301718  0.70713492  0.76745126     0.05240
H956        H  0.04941631  0.64635456  0.74609322     0.08470
H957        H  0.11787896  0.68865004  0.75287784     0.08470
H958        H  0.05356504  0.59129193  0.92668783     0.08450
H959        H  0.09459984  0.56996384  0.90905601     0.08450
H960        H  0.02582052  0.53421110  0.90178604     0.05230
C961        C  0.34219733  0.99232204  0.36218560    -0.20580
C962        C  0.31077967  0.01292613  0.36854450    -0.07140
C963        C  0.26628373  0.49577263  0.34650059     0.13720
C964        C  0.26092842  0.96847272  0.31515531    -0.20630
C965        C  0.29841729  0.95721395  0.30528618    -0.07150
C966        C  0.33640714  0.96448929  0.33089564     0.13710
C967        C  0.37077189  0.94288703  0.32596404    -0.23980
H968        H  0.37477815  0.00268020  0.37987937     0.15000
H969        H  0.22853207  0.95845073  0.29733584     0.15030
C970        C  0.22356133  0.50536219  0.35418518    -0.23930
H971        H  0.39777264  0.95385764  0.34876241     0.05240
H972        H  0.39258719  0.95658937  0.30089329     0.08470
H973        H  0.34868872  0.90103432  0.32434016     0.08470
H974        H  0.23388032  0.53567870  0.37423178     0.08450
H975        H  0.18979182  0.46902262  0.36355672     0.08450
H976        H  0.21233173  0.51637119  0.32889906     0.05230
C977        C  0.38504634  0.61658481  0.29673931    -0.20580
C978        C  0.43585902  0.62835198  0.29808713    -0.07140
C979        C  0.45897446  0.63224039  0.33227414     0.13720
C980        C  0.42763643  0.61504519  0.36316461    -0.20630
C981        C  0.37612226  0.60307791  0.36154757    -0.07150
C982        C  0.35823366  0.61113713  0.32834261     0.13710
C983        C  0.30990734  0.61216498  0.32513266    -0.23980
H984        H  0.36734210  0.61524880  0.27089111     0.15000
H985        H  0.44296719  0.60922153  0.38811045     0.15030
C986        C  0.51548178  0.65338220  0.33737580    -0.23930
H987        H  0.31792311  0.64834740  0.31224283     0.05240
H988        H  0.29287738  0.61028549  0.35176800     0.08470
H989        H  0.28373546  0.58075078  0.30716706     0.08470
H990        H  0.03686449  0.66586423  0.31174058     0.08450
H991        H  0.52179377  0.62430977  0.35083544     0.08450
H992        H  0.53121301  0.68728235  0.35507539     0.05230
C993        C  0.39202384  0.63663979  0.12402947    -0.20580
C994        C  0.44287639  0.64864268  0.12658230    -0.07140
C995        C  0.46938049  0.65205956  0.09453930     0.13720
C996        C  0.44063397  0.62667847  0.06374900    -0.20630
C997        C  0.38700061  0.60605115  0.06319766    -0.07150
C998        C  0.36574514  0.61925890  0.09143616     0.13710
C999        C  0.31835459  0.62071582  0.08545125    -0.23980
H1000       H  0.37244959  0.63922297  0.14753797     0.15000
H1001       H  0.45997309  0.62459757  0.04006966     0.15030
C1002       C  0.02701263  0.68457737  0.09245131    -0.23930
H1003       H  0.33032027  0.66016042  0.07792038     0.05240
H1004       H  0.29522120  0.60817756  0.11032368     0.08470
H1005       H  0.29670430  0.59841691  0.06188693     0.08470
H1006       H  0.04564792  0.67374163  0.11350767     0.08450
H1007       H  0.03848380  0.72514232  0.09667768     0.08450
H1008       H  0.04166959  0.68168887  0.06578010     0.05230
C1009       C  0.28041257  0.99731014  0.07686404    -0.20580
C1010       C  0.32666643  0.01418944  0.05852624    -0.07140
C1011       C  0.36017796  0.99921185  0.07290415     0.13720
C1012       C  0.35446090  0.98203476  0.10880267    -0.20630
C1013       C  0.31041765  0.97105070  0.12882102    -0.07150
C1014       C  0.27015894  0.97276898  0.11041532     0.13710
C1015       C  0.21637429  0.94896326  0.12515607    -0.23980
H1016       H  0.25278622  0.50515893  0.06608554     0.15000
H1017       H  0.38381911  0.97586147  0.12066309     0.15030
C1018       C  0.40222385  0.00270568  0.04993774    -0.23930
H1019       H  0.18991833  0.95149233  0.10550867     0.05240
H1020       H  0.21652280  0.96812065  0.15043828     0.08470
H1021       H  0.20037058  0.90743641  0.12997993     0.08470
H1022       H  0.42830693  0.54199503  0.04087026     0.08450
H1023       H  0.38516576  0.97970816  0.02536003     0.08450
H1024       H  0.42504176  0.98930387  0.06478535     0.05230
C1025       C  0.29075398  0.73674889  0.33064964    -0.20580
C1026       C  0.29907500  0.76675142  0.36148723    -0.07140
C1027       C  0.28589941  0.80539136  0.35967546     0.13720
C1028       C  0.26747609  0.81382702  0.32693648    -0.20630
C1029       C  0.26948312  0.79034007  0.29512891    -0.07150
C1030       C  0.27999053  0.75047140  0.29702861     0.13710
C1031       C  0.28205190  0.72418272  0.26350064    -0.23980
H1032       H  0.29871407  0.70604595  0.33208605     0.15000
H1033       H  0.25841967  0.84410284  0.32526625     0.15030
C1034       C  0.29331565  0.84016137  0.39068617    -0.23930
H1035       H  0.29141402  0.69397111  0.26970665     0.05240
H1036       H  0.31224030  0.75233943  0.24508436     0.08470
H1037       H  0.24419099  0.70631791  0.24958142     0.08470
H1038       H  0.31086142  0.83296661  0.41463737     0.08450
H1039       H  0.25554573  0.83510784  0.39830127     0.08450
H1040       H  0.31870927  0.88066755  0.38291917     0.05230
C1041       C  0.25438476  0.76146178  0.07334797    -0.20580
C1042       C  0.30343059  0.78813219  0.05722163    -0.07140
C1043       C  0.33670380  0.83883653  0.06698771     0.13720
C1044       C  0.33001222  0.85452481  0.10061774    -0.20630
C1045       C  0.28534509  0.82304681  0.12092063    -0.07150
C1046       C  0.24385431  0.78060055  0.10413265     0.13710
C1047       C  0.19066717  0.75294083  0.11997306    -0.23980
H1048       H  0.22658207  0.72324044  0.06472538     0.15000
H1049       H  0.36034356  0.89025366  0.11137187     0.15030
C1050       C  0.38277452  0.87270108  0.04417220    -0.23930
H1051       H  0.16346401  0.72031014  0.10308748     0.05240
H1052       H  0.17564109  0.77950739  0.12153021     0.08470
H1053       H  0.19177873  0.73861221  0.14730829     0.08470
H1054       H  0.38101088  0.85555266  0.01761960     0.08450
H1055       H  0.41820774  0.87957808  0.05783051     0.08450
H1056       H  0.38407980  0.90886500  0.03871862     0.05230
C1057       C  0.44137847  0.85547396  0.32897434    -0.20580
C1058       C  0.44292400  0.82046630  0.30525558    -0.07140
C1059       C  0.42337702  0.76982004  0.31667654     0.13720
C1060       C  0.39517122  0.75314346  0.34878447    -0.20630
C1061       C  0.38760350  0.78698189  0.36979906    -0.07150
C1062       C  0.41745191  0.83943611  0.36251646     0.13710
C1063       C  0.42431525  0.87802253  0.39018347    -0.23980
H1064       H  0.46040861  0.89564705  0.32173850     0.15000
H1065       H  0.37484729  0.71281364  0.35568774     0.15030
C1066       C  0.42821066  0.73178082  0.29471299    -0.23930
H1067       H  0.46601680  0.90452447  0.39504949     0.05240
H1068       H  0.40643057  0.85953649  0.41626798     0.08470
H1069       H  0.40669501  0.90003951  0.38077840     0.08470
H1070       H  0.44605557  0.71538079  0.31222915     0.08450
H1071       H  0.45233738  0.74661554  0.27054044     0.08450
H1072       H  0.38962988  0.70309490  0.28497714     0.05230
C1073       C  0.37280408  0.76299651  0.13853843    -0.20580
C1074       C  0.42519778  0.79671333  0.13571451    -0.07140
C1075       C  0.44841088  0.80623198  0.10145275     0.13720
C1076       C  0.41720612  0.79224706  0.07051110    -0.20630
C1077       C  0.36341955  0.75913730  0.07237424    -0.07150
C1078       C  0.34268376  0.74121172  0.10784619     0.13710
C1079       C  0.28827725  0.70021642  0.11499713    -0.23980
H1080       H  0.35513838  0.75337921  0.16498367     0.15000
H1081       H  0.43525410  0.81179014  0.04568362     0.15030
C1082       C  0.50578432  0.83220768  0.09725109    -0.23930
H1083       H  0.28784877  0.67043373  0.13273571     0.05240
H1084       H  0.26847004  0.68243708  0.08957940     0.08470
H1085       H  0.26787974  0.71571523  0.13008750     0.08470
H1086       H  0.01977353  0.80834827  0.11021881     0.08450
H1087       H  0.02455416  0.86964483  0.11022446     0.08450
H1088       H  0.51743905  0.83787001  0.06850025     0.05230
C1089       C  0.12825625  0.99111598  0.11668178    -0.20580
C1090       C  0.07653791  0.96699155  0.12500321    -0.07140
C1091       C  0.04103119  0.96468929  0.09882147     0.13720
C1092       C  0.05850747  0.98365169  0.06411072    -0.20630
C1093       C  0.11111293  0.51583713  0.05789343    -0.07150
C1094       C  0.14597281  0.01722641  0.08395130     0.13710
C1095       C  0.20208392  0.54945151  0.07867144    -0.23980
H1096       H  0.15511024  0.99404987  0.13736260     0.15000
H1097       H  0.03145427  0.48142979  0.04390713     0.15030
C1098       C  0.98579776  0.94645325  0.10782027    -0.23930
H1099       H  0.22225937  0.04159917  0.10049991     0.05240
H1100       H  0.21563056  0.59021813  0.07904766     0.08470
H1101       H  0.21260189  0.54205249  0.05216272     0.08470
H1102       H  0.98358822  0.97026291  0.12931239     0.08450
H1103       H  0.96544881  0.90577220  0.11620763     0.08450
H1104       H  0.96575143  0.95115687  0.08453778     0.05230
C1105       C  0.14570735  0.62069492  0.08722148    -0.20580
C1106       C  0.11386149  0.59690030  0.05749201    -0.07140
C1107       C  0.06258455  0.58547638  0.05919230     0.13720
C1108       C  0.04178137  0.58633102  0.09280226    -0.20630
C1109       C  0.07276045  0.60141620  0.12410666    -0.07150
C1110       C  0.12515996  0.61796733  0.12126477     0.13710
C1111       C  0.15781029  0.62709432  0.15442900    -0.23980
H1112       H  0.18602430  0.63642470  0.08468974     0.15000
H1113       H  0.00166017  0.57551358  0.09456167     0.15030
C1114       C  0.03004023  0.57088068  0.02567768    -0.23930
H1115       H  0.19683473  0.63512781  0.14757335     0.05240
H1116       H  0.13982055  0.59206580  0.17159145     0.08470
H1117       H  0.16119586  0.65924753  0.17030536     0.08470
H1118       H  0.99771198  0.53110823  0.02789555     0.08450
H1119       H  0.05225131  0.57338488  0.00134425     0.08450
H1120       H  0.01540875  0.59742151  0.02140048     0.05230
C1121       C  0.05657453  0.55465834  0.35732888    -0.20580
C1122       C  0.10573148  0.59287491  0.36830095    -0.07140
C1123       C  0.12937904  0.63823310  0.34688490     0.13720
C1124       C  0.11134909  0.63806520  0.31202610    -0.20630
C1125       C  0.06890598  0.59471629  0.29774054    -0.07150
C1126       C  0.04007138  0.55325850  0.32158694     0.13710
C1127       C  0.99078362  0.50851628  0.31040117    -0.23980
H1128       H  0.03568656  0.52108646  0.37443183     0.15000
H1129       H  0.13153225  0.67245798  0.29565761     0.15030
C1130       C  0.17516693  0.68689083  0.35873640    -0.23930
H1131       H  0.99573789  0.49056547  0.28634320     0.05240
H1132       H  0.96457815  0.52326946  0.30462671     0.08470
H1133       H  0.97530290  0.47891969  0.33185013     0.08470
H1134       H  0.20372678  0.67905975  0.37149474     0.08450
H1135       H  0.16283302  0.70734385  0.37680639     0.08450
H1136       H  0.19319436  0.71324159  0.33578205     0.05230
C1137       C  0.13711002  0.02950589  0.29092421    -0.20580
C1138       C  0.10181616  0.97759352  0.29384565    -0.07140
C1139       C  0.09085863  0.95390731  0.32823124     0.13720
C1140       C  0.10480336  0.98453763  0.35875029    -0.20630
C1141       C  0.14002731  0.53739952  0.35666960    -0.07150
C1142       C  0.15961347  0.55850211  0.32174399     0.13710
C1143       C  0.20451946  0.61110188  0.31583054    -0.23980
H1144       H  0.14819598  0.04730010  0.26447592     0.15000
H1145       H  0.08534468  0.96696085  0.38377636     0.15030
C1146       C  0.06605975  0.89722095  0.33418669    -0.23930
H1147       H  0.23113586  0.60892338  0.29688675     0.05240
H1148       H  0.22436889  0.62788151  0.34153050     0.08470
H1149       H  0.19337664  0.63611122  0.30163247     0.08470
H1150       H  0.09396817  0.88924984  0.34817724     0.08450
H1151       H  0.05506594  0.87558717  0.30887794     0.08450
H1152       H  0.03223101  0.88325654  0.35195644     0.05230
C1153       C  0.63689114  0.07108380  0.38481472     0.00290
C1154       C  0.64908391  0.07279177  0.42165811     0.00290
C1155       C  0.62580502  0.06261964  0.03589065     0.00290
C1156       C  0.64760287  0.07281776  0.00183172     0.00290
O1157       O  0.53661909  0.45566496  0.24976335    -0.74700
O1158       O  0.94351718  0.36002412  0.18008087    -0.74730
O1159       O  0.94970082  0.36729714  0.25336638    -0.74780
O1160       O  0.52785956  0.45201202  0.17691973    -0.74830
O1161       O  0.57353855  0.41303549  0.17348850    -0.74760
O1162       O  0.49792501  0.33091005  0.25514416    -0.74740
O1163       O  0.48975322  0.32136225  0.18073043    -0.74720
O1164       O  0.58436884  0.41879748  0.24725084    -0.74780
Ni1165     Ni  0.48779242  0.41009298  0.21498111     1.25410
Ni1166     Ni  0.53806875  0.36947220  0.21408195     1.25360
C1167       C  0.57363389  0.45009824  0.26158853     0.87480
C1168       C  0.95354537  0.32669946  0.16755231     0.87410
C1169       C  0.96376224  0.33897876  0.26903803     0.87440
C1170       C  0.55972866  0.44381578  0.16066017     0.87610
C1171       C  0.82617564  0.24957945  0.00571167     0.00290
C1172       C  0.82840664  0.26026525  0.04265378     0.00290
C1173       C  0.83693055  0.26737970  0.38820202     0.00290
C1174       C  0.82669630  0.24921428  0.42340820     0.00290
C1175       C  0.85077204  0.06396229  0.03797246     0.00290
C1176       C  0.83562633  0.07306537  0.00440712     0.00290
C1177       C  0.83707433  0.06393216  0.38707880     0.00290
C1178       C  0.83042482  0.07150372  0.42314787     0.00290
O1179       O  0.93913571  0.08575507  0.24706468    -0.74700
O1180       O  0.51133193  0.06695093  0.17117601    -0.74730
O1181       O  0.51180209  0.06221524  0.24589088    -0.74780
O1182       O  0.94067539  0.09390828  0.17322023    -0.74830
O1183       O  0.50076170  0.17670056  0.17634659    -0.74760
O1184       O  0.57196880  0.14453463  0.24715304    -0.74740
O1185       O  0.57160279  0.14969074  0.17355791    -0.74720
O1186       O  0.49954401  0.16822642  0.25134328    -0.74780
Ni1187     Ni  0.47359398  0.07423680  0.20917399     1.25410
Ni1188     Ni  0.53808753  0.16278463  0.21212351     1.25360
C1189       C  0.95954591  0.12817827  0.26372255     0.87480
C1190       C  0.55141692  0.10585898  0.15838380     0.87410
C1191       C  0.55079953  0.09976477  0.26118417     0.87440
C1192       C  0.96142786  0.14001259  0.16113332     0.87610
O1193       O  0.75192133  0.40995033  0.25357394    -0.74700
O1194       O  0.74251140  0.32968438  0.17257054    -0.74730
O1195       O  0.73526307  0.31649183  0.24692954    -0.74780
O1196       O  0.75961683  0.42249060  0.17954681    -0.74830
O1197       O  0.84373395  0.45188114  0.18126552    -0.74760
O1198       O  0.82012726  0.34760406  0.24945920    -0.74740
O1199       O  0.82689100  0.35938939  0.17587178    -0.74720
O1200       O  0.83647725  0.44149317  0.25487178    -0.74780
Ni1201     Ni  0.74419555  0.36851330  0.21310456     1.25410
Ni1202     Ni  0.83479362  0.40112654  0.21569840     1.25360
C1203       C  0.79553023  0.43569057  0.26930493     0.87480
C1204       C  0.78424177  0.33649056  0.15866002     0.87410
C1205       C  0.77456884  0.31767554  0.26126187     0.87440
C1206       C  0.80449073  0.44922098  0.16570013     0.87610
C1207       C  0.52338671  0.14898889  0.89173987     0.00290
C1208       C  0.53780382  0.17485900  0.92451280     0.00290
C1209       C  0.54556120  0.36442707  0.92186914     0.00650
C1210       C  0.54178317  0.37702403  0.88562588     0.00290
C1211       C  0.73046162  0.36674716  0.88739854     0.00290
C1212       C  0.71943831  0.36026931  0.92378704     0.00290
C1213       C  0.53366903  0.36515151  0.53928353     0.00290
C1214       C  0.54141109  0.35883229  0.50333408     0.00290
O1215       O  0.55528579  0.96864970  0.67886972    -0.74700
O1216       O  0.54540065  0.04154117  0.75844312    -0.74730
O1217       O  0.53520744  0.04360672  0.68441980    -0.74780
O1218       O  0.56721415  0.96691298  0.75157664    -0.74830
O1219       O  0.65102209  0.02438433  0.74679452    -0.74760
O1220       O  0.61842302  0.10117239  0.68082622    -0.74740
O1221       O  0.62914116  0.09924649  0.75413725    -0.74720
O1222       O  0.63880241  0.02658923  0.67296380    -0.74780
Ni1223     Ni  0.54781959  0.00321853  0.71866272     1.25410
Ni1224     Ni  0.63738110  0.06491030  0.71360207     1.25360
C1225       C  0.59755865  0.98725955  0.66154600     0.87480
C1226       C  0.58577932  0.08111834  0.77027580     0.87410
C1227       C  0.57243575  0.08245342  0.66879853     0.87440
C1228       C  0.61402410  0.98429377  0.76139392     0.87610
C1229       C  0.54392743  0.18150222  0.50897958     0.00290
C1230       C  0.54296629  0.17160553  0.54631335     0.00290
C1231       C  0.72285069  0.35762519  0.50171738     0.00290
C1232       C  0.74383925  0.36925786  0.53609049     0.00290
O1233       O  0.87262857  0.09119838  0.75656402    -0.74700
O1234       O  0.79763864  0.02043907  0.67137143    -0.74730
O1235       O  0.78459341  0.00649880  0.74467907    -0.74780
O1236       O  0.88300737  0.11007968  0.68281714    -0.74830
O1237       O  0.92635707  0.06878528  0.67987027    -0.74760
O1238       O  0.83023577  0.96721624  0.74655762    -0.74740
O1239       O  0.84020748  0.97818888  0.67284328    -0.74720
O1240       O  0.91858315  0.05269880  0.75216386    -0.74780
Ni1241     Ni  0.83289872  0.05868290  0.71382393     1.25410
Ni1242     Ni  0.88029246  0.01515490  0.71257566     1.25360
C1243       C  0.90445348  0.07873141  0.76989306     0.87480
C1244       C  0.80942766  0.98928496  0.65718109     0.87410
C1245       C  0.79457906  0.97421505  0.75899169     0.87440
C1246       C  0.91857949  0.10481091  0.66915395     0.87610
O1247       O  0.92640241  0.38219799  0.74437518    -0.74700
O1248       O  0.81922332  0.35716850  0.67791374    -0.74730
O1249       O  0.83107120  0.36397148  0.75117923    -0.74780
O1250       O  0.91378387  0.37426490  0.67091860    -0.74830
O1251       O  0.88301415  0.29038221  0.67389798    -0.74760
O1252       O  0.80077536  0.27994726  0.75481993    -0.74740
O1253       O  0.78880420  0.27297666  0.68091447    -0.74720
O1254       O  0.89672940  0.29872091  0.74669832    -0.74780
Ni1255     Ni  0.87366433  0.37242189  0.71095080     1.25410
Ni1256     Ni  0.84124649  0.28250773  0.71434386     1.25360
C1257       C  0.92617599  0.34367762  0.75896735     0.87480
C1258       C  0.78982387  0.31181720  0.66629589     0.87410
C1259       C  0.80525639  0.32095604  0.76762846     0.87440
C1260       C  0.90861247  0.33331735  0.65741913     0.87610
O1261       O  0.67428662  0.13701160  0.95128959    -0.74700
O1262       O  0.71716107  0.27783542  0.92253941    -0.74730
O1263       O  0.76585225  0.22699064  0.95259093    -0.74780
O1264       O  0.62559517  0.18784471  0.92021905    -0.74830
O1265       O  0.60387368  0.20420960  0.97287348    -0.74760
O1266       O  0.74421938  0.24837024  0.00269634    -0.74740
O1267       O  0.69343452  0.29597242  0.97350875    -0.74720
O1268       O  0.65557721  0.15745919  0.00338856    -0.74780
Ni1269     Ni  0.69622910  0.20708886  0.93453161     1.25410
Ni1270     Ni  0.67379695  0.22688143  0.98999915     1.25360
C1271       C  0.65981535  0.12464751  0.98413079     0.87480
C1272       C  0.71032913  0.30949759  0.94140432     0.87410
C1273       C  0.77727558  0.24224749  0.98522341     0.87440
C1274       C  0.59174585  0.19020462  0.94007798     0.87610
O1275       O  0.00554313  0.30095010  0.97308524    -0.74700
O1276       O  0.91097635  0.15985403  0.00493260    -0.74730
O1277       O  0.00836826  0.21104947  0.97333944    -0.74780
O1278       O  0.90612284  0.24560293  0.00677649    -0.74830
O1279       O  0.86592510  0.22911570  0.95464798    -0.74760
O1280       O  0.96056597  0.18332467  0.92481979    -0.74740
O1281       O  0.86449732  0.13863656  0.95541010    -0.74720
O1282       O  0.96463993  0.27831521  0.92135009    -0.74780
Ni1283     Ni  0.95894055  0.23028355  0.99142533     1.25410
Ni1284     Ni  0.91315809  0.20732980  0.93694560     1.25360
C1285       C  0.00262149  0.31273578  0.94000105     0.87480
C1286       C  0.87158920  0.12626759  0.98710980     0.87410
C1287       C  0.00047518  0.18995482  0.94237117     0.87440
C1288       C  0.86783739  0.24093631  0.98798579     0.87610
O1289       O  0.77042337  0.03797744  0.95508325    -0.74700
O1290       O  0.63105791  0.44047925  0.92352684    -0.74730
O1291       O  0.67936239  0.03847166  0.95383346    -0.74780
O1292       O  0.71916895  0.44056034  0.92376438    -0.74830
O1293       O  0.69647133  0.39712347  0.97498810    -0.74760
O1294       O  0.65623363  0.49561007  0.00518713    -0.74740
O1295       O  0.60678886  0.39755183  0.97434882    -0.74720
O1296       O  0.74866470  0.49488416  0.00623700    -0.74780
Ni1297     Ni  0.70061841  0.49051969  0.93726529     1.25410
Ni1298     Ni  0.67672231  0.44556520  0.99240311     1.25360
C1299       C  0.78282008  0.03304658  0.98740276     0.87480
C1300       C  0.59666894  0.40192252  0.94132022     0.87410
C1301       C  0.66147605  0.03380361  0.98575263     0.87440
C1302       C  0.71148156  0.40104898  0.94227743     0.87610
O1303       O  0.60420760  0.39660563  0.45202840    -0.74700
O1304       O  0.74723784  0.49098948  0.42286742    -0.74730
O1305       O  0.69283766  0.39262104  0.45179291    -0.74780
O1306       O  0.65887470  0.49623382  0.41968426    -0.74830
O1307       O  0.67508762  0.03414560  0.47211163    -0.74760
O1308       O  0.71824854  0.43667169  0.50176252    -0.74740
O1309       O  0.76653021  0.03559151  0.47261883    -0.74720
O1310       O  0.62778876  0.43542068  0.50432089    -0.74780
Ni1311     Ni  0.67509707  0.44326434  0.43451845     1.25410
Ni1312     Ni  0.69731211  0.48635583  0.48967870     1.25360
C1313       C  0.59339642  0.39850860  0.48526454     0.87480
C1314       C  0.77968173  0.03042725  0.44105788     0.87410
C1315       C  0.71127386  0.39753666  0.48359173     0.87440
C1316       C  0.66190673  0.03282478  0.43885616     0.87610
O1317       O  0.96042798  0.27595683  0.50400213    -0.74700
O1318       O  0.86667867  0.13382036  0.47442306    -0.74730
O1319       O  0.96549255  0.18869680  0.50880592    -0.74780
O1320       O  0.86250032  0.22170122  0.47380666    -0.74830
O1321       O  0.90703535  0.24575661  0.42348350    -0.74760
O1322       O  0.00588651  0.20557706  0.45702391    -0.74740
O1323       O  0.90794201  0.15705026  0.42268753    -0.74720
O1324       O  0.00581340  0.29552314  0.45416321    -0.74780
Ni1325     Ni  0.91277958  0.20430361  0.49225412     1.25410
Ni1326     Ni  0.95769461  0.22640230  0.43740167     1.25360
C1327       C  0.00021563  0.30840858  0.48565637     0.87480
C1328       C  0.86995078  0.12300066  0.44139190     0.87410
C1329       C  0.00349180  0.19272907  0.49054277     0.87440
C1330       C  0.86745732  0.23898433  0.44163630     0.87610
O1331       O  0.69493295  0.29280485  0.45268750    -0.74700
O1332       O  0.64492638  0.15078840  0.42560121    -0.74730
O1333       O  0.60245394  0.20486184  0.45610914    -0.74780
O1334       O  0.73960333  0.23905760  0.42156391    -0.74830
O1335       O  0.76390153  0.22443220  0.47417181    -0.74760
O1336       O  0.62234109  0.17680787  0.50476170    -0.74740
O1337       O  0.67505978  0.13250975  0.47383080    -0.74720
O1338       O  0.71152547  0.27062184  0.50547823    -0.74780
Ni1339     Ni  0.67005798  0.22229273  0.43693102     1.25410
Ni1340     Ni  0.69370636  0.20072864  0.49166224     1.25360
C1341       C  0.70875896  0.30455326  0.48559258     0.87480
C1342       C  0.65548763  0.11989081  0.44221033     0.87410
C1343       C  0.59080276  0.18677200  0.48822694     0.87440
C1344       C  0.77432646  0.23669137  0.44081660     0.87610
C1345       C  0.82909042  0.46649049  0.59839216    -0.20580
C1346       C  0.79291805  0.46921230  0.62048346    -0.07140
C1347       C  0.74552774  0.45748366  0.60531678     0.13720
C1348       C  0.72991257  0.42945675  0.57334244    -0.20630
C1349       C  0.76422208  0.42002265  0.55390975    -0.07150
C1350       C  0.81624354  0.44703258  0.56363191     0.13710
C1351       C  0.85741076  0.45673393  0.53690528    -0.23980
H1352       H  0.86766721  0.48061864  0.60793780     0.15000
H1353       H  0.68987919  0.41130942  0.56522627     0.15030
C1354       C  0.71160423  0.47361894  0.62249097    -0.23930
H1355       H  0.89644742  0.48171165  0.54823287     0.05240
H1356       H  0.85335885  0.47667652  0.51293641     0.08470
H1357       H  0.85421309  0.42078992  0.52807870     0.08470
H1358       H  0.73320803  0.51546144  0.62712335     0.08450
H1359       H  0.69592695  0.45258112  0.64826168     0.08450
H1360       H  0.68060977  0.46696803  0.60354520     0.05230
C1361       C  0.71048993  0.32516303  0.59399704    -0.20580
C1362       C  0.74125867  0.33157293  0.56371358    -0.07140
C1363       C  0.77963673  0.31793963  0.56718491     0.13720
C1364       C  0.78835010  0.30282110  0.60109757    -0.20630
C1365       C  0.76386250  0.30641771  0.63194688    -0.07150
C1366       C  0.72393209  0.31686721  0.62848544     0.13710
C1367       C  0.69776720  0.32183697  0.66125292    -0.23980
H1368       H  0.67990810  0.33332330  0.59116266     0.15000
H1369       H  0.81891810  0.29414615  0.60408799     0.15030
C1370       C  0.81360261  0.32086038  0.53664604    -0.23930
H1371       H  0.66779103  0.33118442  0.65403436     0.05240
H1372       H  0.72637289  0.35308889  0.67856419     0.08470
H1373       H  0.67949514  0.28537117  0.67682572     0.08470
H1374       H  0.80597482  0.33541987  0.51127521     0.08450
H1375       H  0.80756048  0.28220793  0.53177066     0.08450
H1376       H  0.85458920  0.34640474  0.54379941     0.05230
C1377       C  0.95556287  0.14107337  0.57290963    -0.20580
C1378       C  0.00905335  0.17526600  0.57478079    -0.07140
C1379       C  0.02991568  0.19387170  0.60998701     0.13720
C1380       C  0.99995489  0.17126869  0.64086361    -0.20630
C1381       C  0.94743004  0.13708156  0.63791967    -0.07150
C1382       C  0.92439790  0.12784841  0.60349069     0.13710
C1383       C  0.86727996  0.10268011  0.59869556    -0.23980
H1384       H  0.93793008  0.12083256  0.54832689     0.15000
H1385       H  0.01767198  0.18075121  0.66732700     0.15030
C1386       C  0.58373735  0.23662630  0.61635481    -0.23930
H1387       H  0.85596726  0.09828176  0.56983592     0.05240
H1388       H  0.85332304  0.12611109  0.61166451     0.08470
H1389       H  0.84863324  0.06484916  0.61125582     0.08470
H1390       H  0.60204421  0.25614255  0.59080324     0.08450
H1391       H  0.60696136  0.22338723  0.63082320     0.08450
H1392       H  0.58295649  0.26399311  0.63514753     0.05230
C1393       C  0.61022232  0.14306871  0.61799493    -0.20580
C1394       C  0.56548578  0.10289400  0.63362571    -0.07140
C1395       C  0.52152652  0.07723588  0.61082306     0.13720
C1396       C  0.52474826  0.09206680  0.57446536    -0.20630
C1397       C  0.56405951  0.14003619  0.56290708    -0.07150
C1398       C  0.61007756  0.16237166  0.58356590     0.13710
C1399       C  0.65910424  0.20807299  0.57140839    -0.23980
H1400       H  0.64589485  0.16123066  0.63317645     0.15000
H1401       H  0.49042724  0.07262348  0.55780862     0.15030
C1402       C  0.46955744  0.03551664  0.62205649    -0.23930
H1403       H  0.68483461  0.22682168  0.59450902     0.05240
H1404       H  0.65124167  0.23591382  0.55763576     0.08470
H1405       H  0.68035063  0.19588451  0.55386619     0.08470
H1406       H  0.44273617  0.04987585  0.61926511     0.08450
H1407       H  0.46563881  0.01939866  0.64925596     0.08450
H1408       H  0.45675279  0.00531764  0.60214405     0.05230
C1409       C  0.96222892  0.37272428  0.56242518    -0.20580
C1410       C  0.98212420  0.34051167  0.55735614    -0.07140
C1411       C  0.96546205  0.29818183  0.58113125     0.13720
C1412       C  0.93976346  0.29572314  0.61283538    -0.20630
C1413       C  0.93016944  0.33456591  0.62155323    -0.07150
C1414       C  0.93735558  0.37085827  0.59459049     0.13710
C1415       C  0.92109989  0.40913140  0.59996367    -0.23980
H1416       H  0.97259428  0.40400107  0.54353434     0.15000
H1417       H  0.92970217  0.26449771  0.63171909     0.15030
C1418       C  0.47391992  0.25485154  0.57448560    -0.23930
H1419       H  0.92713540  0.43201769  0.57510596     0.05240
H1420       H  0.94459853  0.43434263  0.62211612     0.08470
H1421       H  0.87981529  0.39025393  0.60700727     0.08470
H1422       H  0.50477972  0.26434634  0.55472058     0.08450
H1423       H  0.43715720  0.22178898  0.56507457     0.08450
H1424       H  0.48408499  0.24364125  0.60017664     0.05230
C1425       C  0.58283220  0.45421035  0.56250433    -0.20580
C1426       C  0.57298395  0.40395751  0.56435911    -0.07140
C1427       C  0.58276898  0.38693812  0.59733629     0.13720
C1428       C  0.58945404  0.41391466  0.62896993    -0.20630
C1429       C  0.59689551  0.46287206  0.62742186    -0.07150
C1430       C  0.59766728  0.48470345  0.59333294     0.13710
C1431       C  0.60739657  0.53761161  0.58992413    -0.23980
H1432       H  0.57468292  0.46807426  0.53772555     0.15000
H1433       H  0.59131770  0.39763475  0.65472711     0.15030
C1434       C  0.58598410  0.34020479  0.60015641    -0.23930
H1435       H  0.10781418  0.54961260  0.56147986     0.05240
H1436       H  0.64445810  0.56514493  0.60288548     0.08470
H1437       H  0.57500650  0.53644789  0.60352298     0.08470
H1438       H  0.58416024  0.32340759  0.57349045     0.08450
H1439       H  0.55479565  0.31334610  0.61822360     0.08450
H1440       H  0.62326647  0.35063817  0.61276149     0.05230
C1441       C  0.73227151  0.29076281  0.81061798    -0.20580
C1442       C  0.78481310  0.32042199  0.80350929    -0.07140
C1443       C  0.81815152  0.35122122  0.83122682     0.13720
C1444       C  0.79872383  0.35739465  0.86309700    -0.20630
C1445       C  0.74639103  0.33579875  0.86705369    -0.07150
C1446       C  0.71290341  0.29834962  0.84264216     0.13710
C1447       C  0.65708828  0.26680473  0.85010608    -0.23980
H1448       H  0.70628046  0.26436506  0.79061978     0.15000
H1449       H  0.82432992  0.38366824  0.88331342     0.15030
C1450       C  0.87434687  0.37530392  0.82862302    -0.23930
H1451       H  0.63517720  0.26852439  0.82656199     0.05240
H1452       H  0.64505986  0.27876170  0.87446835     0.08470
H1453       H  0.64997030  0.22783787  0.85491908     0.08470
H1454       H  0.88905062  0.40024690  0.80446219     0.08450
H1455       H  0.88113889  0.34303802  0.82820810     0.08450
H1456       H  0.89434517  0.39856580  0.85252229     0.05230
C1457       C  0.70250103  0.39124828  0.83226697    -0.20580
C1458       C  0.73520741  0.40831552  0.86260012    -0.07140
C1459       C  0.78301711  0.45429271  0.85909735     0.13720
C1460       C  0.79783176  0.47741924  0.82510860    -0.20630
C1461       C  0.77069929  0.45221444  0.79399701    -0.07150
C1462       C  0.72129588  0.40972796  0.79746094     0.13710
C1463       C  0.69085096  0.38240966  0.76447947    -0.23980
H1464       H  0.66619177  0.35694053  0.83526036     0.15000
H1465       H  0.83269423  0.51361422  0.82262743     0.15030
C1466       C  0.82169507  0.47691351  0.88930939    -0.23930
H1467       H  0.65378644  0.34785547  0.77133786     0.05240
H1468       H  0.71317959  0.36997710  0.74819726     0.08470
H1469       H  0.68311426  0.40852970  0.74794745     0.08470
H1470       H  0.80848443  0.45450696  0.91463946     0.08450
H1471       H  0.83036423  0.51642513  0.89463422     0.08450
H1472       H  0.85771413  0.47817103  0.88151941     0.05230
C1473       C  0.60161611  0.40811534  0.79434849    -0.20580
C1474       C  0.62332928  0.46094765  0.79327962    -0.07140
C1475       C  0.63664739  0.48770874  0.82585992     0.13720
C1476       C  0.61416531  0.46060626  0.85773667    -0.20630
C1477       C  0.58688200  0.40633380  0.85925407    -0.07150
C1478       C  0.58741298  0.38130125  0.82716212     0.13710
C1479       C  0.56579088  0.32497977  0.82561415    -0.23980
H1480       H  0.59248747  0.38723049  0.76931564     0.15000
H1481       H  0.61480362  0.48299391  0.88025135     0.15030
C1482       C  0.67142906  0.04495581  0.82676910    -0.23930
H1483       H  0.59194328  0.31491993  0.81250105     0.05240
H1484       H  0.53115727  0.30805525  0.80832221     0.08470
H1485       H  0.55825823  0.30872436  0.85314279     0.08470
H1486       H  0.65577086  0.06426214  0.81006891     0.08450
H1487       H  0.70979325  0.05518942  0.81609897     0.08450
H1488       H  0.67678627  0.05986633  0.85459116     0.05230
C1489       C  0.96576715  0.31568954  0.84988041    -0.20580
C1490       C  0.99291361  0.36346018  0.86555485    -0.07140
C1491       C  0.99151503  0.40346334  0.84699156     0.13720
C1492       C  0.97931144  0.39871983  0.80996986    -0.20630
C1493       C  0.95426035  0.35014785  0.79356246    -0.07150
C1494       C  0.94389917  0.30733809  0.81552296     0.13710
C1495       C  0.91037585  0.25253008  0.80377676    -0.23980
H1496       H  0.96833951  0.28606184  0.86190147     0.15000
H1497       H  0.98250993  0.43147651  0.79557443     0.15030
C1498       C  0.00025037  0.44961511  0.86713951    -0.23930
H1499       H  0.90593157  0.22494952  0.82514071     0.05240
H1500       H  0.92709567  0.24508622  0.77972162     0.08470
H1501       H  0.87063991  0.24420423  0.79829329     0.08470
H1502       H  0.03687534  0.46762390  0.88197394     0.08450
H1503       H  0.96931067  0.43797760  0.88737272     0.08450
H1504       H  0.99977385  0.47828055  0.84870777     0.05230
C1505       C  0.94949414  0.07409080  0.86519587    -0.20580
C1506       C  0.97130513  0.12573198  0.87435995    -0.07140
C1507       C  0.95943816  0.15619762  0.85179490     0.13720
C1508       C  0.93119155  0.13694636  0.82033370    -0.20630
C1509       C  0.92299036  0.09132695  0.80705810    -0.07150
C1510       C  0.93175813  0.05849189  0.82992702     0.13710
C1511       C  0.92551161  0.00863333  0.81735010    -0.23980
H1512       H  0.45727777  0.04965969  0.88234360     0.15000
H1513       H  0.92287075  0.16115669  0.80331110     0.15030
C1514       C  0.98217110  0.21135903  0.85659804    -0.23930
H1515       H  0.92990832  0.98711985  0.83999354     0.05240
H1516       H  0.95537184  0.01611883  0.79706562     0.08470
H1517       H  0.88698493  0.98374006  0.80555797     0.08470
H1518       H  0.01722702  0.22879369  0.87354487     0.08450
H1519       H  0.95082143  0.21394635  0.86927233     0.08450
H1520       H  0.99200908  0.23050716  0.83002693     0.05230
C1521       C  0.56358968  0.16606983  0.83145588    -0.20580
C1522       C  0.55813010  0.14298734  0.86572004    -0.07140
C1523       C  0.56679736  0.10140299  0.86847038     0.13720
C1524       C  0.57793975  0.08312787  0.83710448    -0.20630
C1525       C  0.58161937  0.10581844  0.80310907    -0.07150
C1526       C  0.57581622  0.14870740  0.80052825     0.13710
C1527       C  0.57918874  0.17422680  0.76473825    -0.23980
H1528       H  0.55547798  0.19669214  0.82847426     0.15000
H1529       H  0.58162651  0.04958436  0.83904949     0.15030
C1530       C  0.55998438  0.07290059  0.90344161    -0.23930
H1531       H  0.57301873  0.20713224  0.76745611     0.05240
H1532       H  0.54942438  0.14635339  0.74609736     0.08470
H1533       H  0.61788575  0.18865320  0.75288446     0.08470
H1534       H  0.55356894  0.09129086  0.92669288     0.08450
H1535       H  0.59460550  0.06996434  0.90906188     0.08450
H1536       H  0.52582652  0.03421052  0.90179081     0.05230
C1537       C  0.84219547  0.49232899  0.36218359    -0.20580
C1538       C  0.81077688  0.51293256  0.36853997    -0.07140
C1539       C  0.76628526  0.99576679  0.34650647     0.13720
C1540       C  0.76093043  0.46847977  0.31514953    -0.20630
C1541       C  0.79842053  0.45722132  0.30528286    -0.07150
C1542       C  0.83640775  0.46449588  0.33089446     0.13710
C1543       C  0.87077164  0.44289193  0.32596648    -0.23980
H1544       H  0.87477481  0.50268735  0.37987892     0.15000
H1545       H  0.72853550  0.45845775  0.29732862     0.15030
C1546       C  0.72356501  0.00535914  0.35419171    -0.23930
H1547       H  0.89777311  0.45386514  0.34876493     0.05240
H1548       H  0.89258558  0.45658882  0.30089518     0.08470
H1549       H  0.84868790  0.40103935  0.32434514     0.08470
H1550       H  0.73388576  0.03567595  0.37423833     0.08450
H1551       H  0.68979436  0.96902030  0.36356305     0.08450
H1552       H  0.71233637  0.01636942  0.32890577     0.05230
C1553       C  0.88505280  0.11658208  0.29674558    -0.20580
C1554       C  0.93586505  0.12834777  0.29809313    -0.07140
C1555       C  0.95898024  0.13223488  0.33228005     0.13720
C1556       C  0.92764184  0.11503826  0.36317037    -0.20630
C1557       C  0.87612775  0.10307136  0.36155336    -0.07150
C1558       C  0.85823993  0.11113317  0.32834900     0.13710
C1559       C  0.80991357  0.11216115  0.32513975    -0.23980
H1560       H  0.86734869  0.11524701  0.27089750     0.15000
H1561       H  0.94297226  0.10921368  0.38811605     0.15030
C1562       C  0.01548763  0.15337688  0.33738168    -0.23930
H1563       H  0.81792865  0.14834372  0.31225052     0.05240
H1564       H  0.79288406  0.11028123  0.35177533     0.08470
H1565       H  0.78374164  0.08074709  0.30717412     0.08470
H1566       H  0.53687025  0.16585867  0.31174644     0.08450
H1567       H  0.02179985  0.12430473  0.35084140     0.08450
H1568       H  0.03121873  0.18727700  0.35508129     0.05230
C1569       C  0.89202503  0.13663169  0.12403645    -0.20580
C1570       C  0.94287719  0.14863338  0.12658806    -0.07140
C1571       C  0.96938048  0.15205157  0.09454427     0.13720
C1572       C  0.94063315  0.12667395  0.06375332    -0.20630
C1573       C  0.88700010  0.10604855  0.06320256    -0.07150
C1574       C  0.86574582  0.11925413  0.09144308     0.13710
C1575       C  0.81835667  0.12071393  0.08545998    -0.23980
H1576       H  0.87245161  0.13921389  0.14754580     0.15000
H1577       H  0.95997135  0.12459347  0.04007328     0.15030
C1578       C  0.52701268  0.18456766  0.09245605    -0.23930
H1579       H  0.83032486  0.16015949  0.07793069     0.05240
H1580       H  0.79522344  0.10817489  0.11033258     0.08470
H1581       H  0.79670599  0.09841782  0.06189490     0.08470
H1582       H  0.54564737  0.17373013  0.11351163     0.08450
H1583       H  0.53848534  0.22513277  0.09668357     0.08450
H1584       H  0.54166888  0.18167966  0.06578439     0.05230
C1585       C  0.78041835  0.49731069  0.07686094    -0.20580
C1586       C  0.82667155  0.51419122  0.05852225    -0.07140
C1587       C  0.86018504  0.49921576  0.07289990     0.13720
C1588       C  0.85446883  0.48203799  0.10879847    -0.20630
C1589       C  0.81042532  0.47105226  0.12881734    -0.07150
C1590       C  0.77016586  0.47276970  0.11041213     0.13710
C1591       C  0.71638148  0.44896409  0.12515350    -0.23980
H1592       H  0.75278070  0.00515853  0.06608742     0.15000
H1593       H  0.88382779  0.47586556  0.12065854     0.15030
C1594       C  0.90223147  0.50271181  0.04993288    -0.23930
H1595       H  0.68992495  0.45149296  0.10550648     0.05240
H1596       H  0.71653045  0.46812187  0.15043563     0.08470
H1597       H  0.70037786  0.40743728  0.12997750     0.08470
H1598       H  0.92830247  0.04198906  0.04087683     0.08450
H1599       H  0.88517356  0.47971177  0.02535615     0.08450
H1600       H  0.92505283  0.48931428  0.06478064     0.05230
C1601       C  0.79076308  0.23675294  0.33064954    -0.20580
C1602       C  0.79908401  0.26675425  0.36148783    -0.07140
C1603       C  0.78590790  0.30539393  0.35967715     0.13720
C1604       C  0.76748384  0.31383020  0.32693862    -0.20630
C1605       C  0.76949243  0.29034569  0.29513025    -0.07150
C1606       C  0.77999984  0.25047688  0.29702894     0.13710
C1607       C  0.78206053  0.22418870  0.26350053    -0.23980
H1608       H  0.79872248  0.20604944  0.33208509     0.15000
H1609       H  0.75842605  0.34410513  0.32526936     0.15030
C1610       C  0.79332406  0.34016295  0.39068857    -0.23930
H1611       H  0.79142161  0.19397613  0.26970613     0.05240
H1612       H  0.81224921  0.25234553  0.24508445     0.08470
H1613       H  0.74419961  0.20632487  0.24958139     0.08470
H1614       H  0.81086967  0.33296740  0.41463949     0.08450
H1615       H  0.75555417  0.33510928  0.39830376     0.08450
H1616       H  0.81871772  0.38066947  0.38292246     0.05230
C1617       C  0.75439062  0.26146764  0.07334808    -0.20580
C1618       C  0.80343607  0.28813685  0.05722127    -0.07140
C1619       C  0.83671125  0.33884045  0.06698813     0.13720
C1620       C  0.83002187  0.35452779  0.10061917    -0.20630
C1621       C  0.78535494  0.32305004  0.12092231    -0.07150
C1622       C  0.74386240  0.28060564  0.10413396     0.13710
C1623       C  0.69067583  0.25294562  0.11997548    -0.23980
H1624       H  0.72658669  0.22324682  0.06472541     0.15000
H1625       H  0.86035426  0.39025584  0.11137360     0.15030
C1626       C  0.88278160  0.37270462  0.04417219    -0.23930
H1627       H  0.66347174  0.22031524  0.10308999     0.05240
H1628       H  0.67564995  0.27951221  0.12153411     0.08470
H1629       H  0.69178852  0.23861600  0.14731015     0.08470
H1630       H  0.88101551  0.35555701  0.01761879     0.08450
H1631       H  0.91821504  0.37957933  0.05782906     0.08450
H1632       H  0.88408886  0.40886997  0.03872074     0.05230
C1633       C  0.94138440  0.35547295  0.32897305    -0.20580
C1634       C  0.94292852  0.32046458  0.30525438    -0.07140
C1635       C  0.92338141  0.26981841  0.31667565     0.13720
C1636       C  0.89517880  0.25314325  0.34878511    -0.20630
C1637       C  0.88761204  0.28698234  0.36979991    -0.07150
C1638       C  0.91745942  0.33943641  0.36251570     0.13710
C1639       C  0.92432179  0.37802473  0.39018074    -0.23980
H1640       H  0.96041395  0.39564583  0.32173649     0.15000
H1641       H  0.87485499  0.21281362  0.35568887     0.15030
C1642       C  0.92821150  0.23177805  0.29471064    -0.23930
H1643       H  0.96602320  0.40452648  0.39504746     0.05240
H1644       H  0.90643546  0.35954062  0.41626533     0.08470
H1645       H  0.90670307  0.40004195  0.38077265     0.08470
H1646       H  0.94606177  0.21538050  0.31222392     0.08450
H1647       H  0.95233164  0.24661174  0.27053492     0.08450
H1648       H  0.88962893  0.20308991  0.28497910     0.05230
C1649       C  0.87280677  0.26299548  0.13853796    -0.20580
C1650       C  0.92520060  0.29671132  0.13571385    -0.07140
C1651       C  0.94841351  0.30623115  0.10145205     0.13720
C1652       C  0.91720858  0.29224716  0.07051071    -0.20630
C1653       C  0.86342197  0.25913809  0.07237397    -0.07150
C1654       C  0.84268592  0.24121250  0.10784578     0.13710
C1655       C  0.78827881  0.20021868  0.11499666    -0.23980
H1656       H  0.85514128  0.25337812  0.16498327     0.15000
H1657       H  0.93525650  0.31179077  0.04568333     0.15030
C1658       C  0.00578700  0.33220831  0.09725000    -0.23930
H1659       H  0.78784898  0.17043525  0.13273509     0.05240
H1660       H  0.76847099  0.18243977  0.08957895     0.08470
H1661       H  0.76788280  0.21571858  0.13008752     0.08470
H1662       H  0.51977759  0.30835003  0.11021771     0.08450
H1663       H  0.52455582  0.36964568  0.11022299     0.08450
H1664       H  0.01744136  0.33787065  0.06849909     0.05230
C1665       C  0.62825565  0.49111319  0.11667804    -0.20580
C1666       C  0.57653792  0.46699169  0.12500127    -0.07140
C1667       C  0.54103057  0.46469195  0.09882096     0.13720
C1668       C  0.55850556  0.48365578  0.06411028    -0.20630
C1669       C  0.61111465  0.01583642  0.05789552    -0.07150
C1670       C  0.64597142  0.51722392  0.08394754     0.13710
C1671       C  0.70208538  0.04945769  0.07867761    -0.23980
H1672       H  0.65511012  0.49404420  0.13735750     0.15000
H1673       H  0.53145655  0.98142249  0.04390610     0.15030
C1674       C  0.48579749  0.44645573  0.10782120    -0.23930
H1675       H  0.72225892  0.54159843  0.10049603     0.05240
H1676       H  0.71562996  0.09022352  0.07906279     0.08470
H1677       H  0.71260625  0.04206765  0.05216660     0.08470
H1678       H  0.48358884  0.47026531  0.12931378     0.08450
H1679       H  0.46544917  0.40577453  0.11620843     0.08450
H1680       H  0.46574964  0.45115885  0.08453953     0.05230
C1681       C  0.64570540  0.12069708  0.08721971    -0.20580
C1682       C  0.61385747  0.09689702  0.05749237    -0.07140
C1683       C  0.56257853  0.08546624  0.05919541     0.13720
C1684       C  0.54177678  0.08631836  0.09280663    -0.20630
C1685       C  0.57275896  0.10140696  0.12410959    -0.07150
C1686       C  0.62516000  0.11796568  0.12126448     0.13710
C1687       C  0.65781446  0.12709622  0.15442682    -0.23980
H1688       H  0.68602326  0.13643383  0.08468455     0.15000
H1689       H  0.50165458  0.07549677  0.09456807     0.15030
C1690       C  0.53003146  0.07086672  0.02568210    -0.23930
H1691       H  0.69683913  0.13513304  0.14756877     0.05240
H1692       H  0.63982946  0.09206788  0.17158950     0.08470
H1693       H  0.66119837  0.15924821  0.17030380     0.08470
H1694       H  0.49770456  0.03109366  0.02790165     0.08450
H1695       H  0.55224170  0.07337116  0.00134802     0.08450
H1696       H  0.51539767  0.09740563  0.02140500     0.05230
C1697       C  0.55658236  0.05465854  0.35733468    -0.20580
C1698       C  0.60574047  0.09287506  0.36830429    -0.07140
C1699       C  0.62938782  0.13823131  0.34688656     0.13720
C1700       C  0.61135664  0.13806057  0.31202788    -0.20630
C1701       C  0.56891151  0.09471105  0.29774468    -0.07150
C1702       C  0.54007687  0.05325597  0.32159315     0.13710
C1703       C  0.49078636  0.00851452  0.31041064    -0.23980
H1704       H  0.53569475  0.02108862  0.37443945     0.15000
H1705       H  0.63154012  0.17245170  0.29565780     0.15030
C1706       C  0.67517637  0.18688961  0.35873652    -0.23930
H1707       H  0.49573621  0.99055988  0.28635309     0.05240
H1708       H  0.46458177  0.02326908  0.30463725     0.08470
H1709       H  0.47530696  0.97892048  0.33186132     0.08470
H1710       H  0.70373667  0.17905906  0.37149479     0.08450
H1711       H  0.66284325  0.20734342  0.37680636     0.08450
H1712       H  0.69320277  0.21323935  0.33578145     0.05230
C1713       C  0.63710624  0.52950690  0.29092174    -0.20580
C1714       C  0.60181617  0.47759368  0.29384306    -0.07140
C1715       C  0.59085843  0.45390749  0.32822858     0.13720
C1716       C  0.60479850  0.48453772  0.35874739    -0.20630
C1717       C  0.64003457  0.03739887  0.35667233    -0.07150
C1718       C  0.65962017  0.05850067  0.32174633     0.13710
C1719       C  0.70452815  0.11109944  0.31583225    -0.23980
H1720       H  0.64819188  0.54730140  0.26447351     0.15000
H1721       H  0.58533897  0.46696017  0.38377308     0.15030
C1722       C  0.56606529  0.39722162  0.33418407    -0.23930
H1723       H  0.73114324  0.10891901  0.29688813     0.05240
H1724       H  0.72437871  0.12787921  0.34153191     0.08470
H1725       H  0.69338694  0.13611018  0.30163435     0.08470
H1726       H  0.59397657  0.38925474  0.34817473     0.08450
H1727       H  0.55507367  0.37558776  0.30887533     0.08450
H1728       H  0.53223617  0.38325355  0.35195385     0.05230
C1729       C  0.63688204  0.57108322  0.38481188     0.00290
C1730       C  0.64907533  0.57279069  0.42165518     0.00290
C1731       C  0.62580563  0.56262126  0.03588909     0.00290
C1732       C  0.64760109  0.57281793  0.00182932     0.00290
O1733       O  0.53661888  0.95566680  0.24976544    -0.74700
O1734       O  0.94351549  0.86002697  0.18008191    -0.74730
O1735       O  0.94969862  0.86730030  0.25336781    -0.74780
O1736       O  0.52785945  0.95201385  0.17692125    -0.74830
O1737       O  0.57353655  0.91303520  0.17349066    -0.74760
O1738       O  0.49792064  0.83091097  0.25514573    -0.74740
O1739       O  0.48974962  0.82136318  0.18073189    -0.74720
O1740       O  0.58436622  0.91879674  0.24725312    -0.74780
Ni1741     Ni  0.48779144  0.91009552  0.21498263     1.25410
Ni1742     Ni  0.53806549  0.86947235  0.21408384     1.25360
C1743       C  0.57363277  0.95009855  0.26159089     0.87480
C1744       C  0.95354266  0.82670150  0.16755333     0.87410
C1745       C  0.96375866  0.83898086  0.26903949     0.87440
C1746       C  0.55972784  0.94381622  0.16066203     0.87610
C1747       C  0.82617334  0.74957853  0.00571123     0.00290
C1748       C  0.82840326  0.76026266  0.04265376     0.00290
C1749       C  0.83692228  0.76737865  0.38820132     0.00290
C1750       C  0.82668916  0.74921408  0.42340761     0.00290
C1751       C  0.85077413  0.56396370  0.03796782     0.00290
C1752       C  0.83562603  0.57306622  0.00440300     0.00290
C1753       C  0.83706960  0.56393876  0.38707332     0.00290
C1754       C  0.83042067  0.57150913  0.42314258     0.00290
O1755       O  0.93913151  0.58576142  0.24705830    -0.74700
O1756       O  0.51133075  0.56696040  0.17117080    -0.74730
O1757       O  0.51179894  0.56222296  0.24588526    -0.74780
O1758       O  0.94067347  0.59391687  0.17321420    -0.74830
O1759       O  0.50075954  0.67670912  0.17634163    -0.74760
O1760       O  0.57196490  0.64454243  0.24714956    -0.74740
O1761       O  0.57160170  0.64970011  0.17355410    -0.74720
O1762       O  0.49953896  0.66823292  0.25133820    -0.74780
Ni1763     Ni  0.47359143  0.57424490  0.20916811     1.25410
Ni1764     Ni  0.53808449  0.66279277  0.21211918     1.25360
C1765       C  0.95954080  0.62818409  0.26371671     0.87480
C1766       C  0.55141645  0.60586860  0.15837965     0.87410
C1767       C  0.55079552  0.59977195  0.26117974     0.87440
C1768       C  0.96142598  0.64002144  0.16112786     0.87610
O1769       O  0.75191473  0.90994450  0.25357701    -0.74700
O1770       O  0.74250144  0.82968220  0.17256922    -0.74730
O1771       O  0.73525361  0.81648553  0.24692834    -0.74780
O1772       O  0.75960868  0.92248882  0.17954999    -0.74830
O1773       O  0.84372546  0.95187729  0.18126805    -0.74760
O1774       O  0.82011754  0.84759570  0.24945706    -0.74740
O1775       O  0.82688071  0.85938521  0.17587020    -0.74720
O1776       O  0.83647025  0.94148497  0.25487342    -0.74780
Ni1777     Ni  0.74418689  0.86850925  0.21310550     1.25410
Ni1778     Ni  0.83478461  0.90112022  0.21569839     1.25360
C1779       C  0.79552429  0.93568329  0.26930762     0.87480
C1780       C  0.78423151  0.83648760  0.15865838     0.87410
C1781       C  0.77455917  0.81766821  0.26126007     0.87440
C1782       C  0.80448259  0.94921886  0.16570341     0.87610
C1783       C  0.52338475  0.64899148  0.89173444     0.00290
C1784       C  0.53780210  0.67486093  0.92450777     0.00290
C1785       C  0.54556461  0.86442980  0.92186812     0.00650
C1786       C  0.54178949  0.87702772  0.88562455     0.00290
C1787       C  0.73046640  0.86674951  0.88739833     0.00290
C1788       C  0.71944057  0.86027076  0.92378641     0.00290
C1789       C  0.53366253  0.86515442  0.53928283     0.00290
C1790       C  0.54140771  0.85883448  0.50333409     0.00290
O1791       O  0.55527792  0.46864345  0.67886693    -0.74700
O1792       O  0.54538989  0.54153622  0.75843893    -0.74730
O1793       O  0.53519719  0.54359954  0.68441576    -0.74780
O1794       O  0.56720425  0.46690818  0.75157440    -0.74830
O1795       O  0.65101197  0.52438131  0.74679431    -0.74760
O1796       O  0.61841274  0.60116541  0.68082197    -0.74740
O1797       O  0.62912998  0.59924311  0.75413265    -0.74720
O1798       O  0.63879508  0.52658299  0.67296364    -0.74780
Ni1799     Ni  0.54780987  0.50321261  0.71865935     1.25410
Ni1800     Ni  0.63737131  0.56490536  0.71359969     1.25360
C1801       C  0.59755227  0.48725324  0.66154503     0.87480
C1802       C  0.58576804  0.58111479  0.77027081     0.87410
C1803       C  0.57242507  0.58244720  0.66879508     0.87440
C1804       C  0.61401381  0.48429022  0.76139315     0.87610
C1805       C  0.54391904  0.68150199  0.50897784     0.00290
C1806       C  0.54295410  0.67160370  0.54631159     0.00290
C1807       C  0.72284845  0.85762099  0.50172178     0.00290
C1808       C  0.74383862  0.86925264  0.53609427     0.00290
O1809       O  0.87261099  0.59120012  0.75656154    -0.74700
O1810       O  0.79761409  0.52043924  0.67136970    -0.74730
O1811       O  0.78457272  0.50650191  0.74467931    -0.74780
O1812       O  0.88298574  0.61007827  0.68281295    -0.74830
O1813       O  0.92632994  0.56877862  0.67986486    -0.74760
O1814       O  0.83021376  0.46721792  0.74655810    -0.74740
O1815       O  0.84017741  0.47818369  0.67284485    -0.74720
O1816       O  0.91856349  0.55269879  0.75215910    -0.74780
Ni1817     Ni  0.83287740  0.55868395  0.71382202     1.25410
Ni1818     Ni  0.88026746  0.51515239  0.71257363     1.25360
C1819       C  0.90443638  0.57873260  0.76988926     0.87480
C1820       C  0.80940188  0.48928344  0.65718045     0.87410
C1821       C  0.79455855  0.47421845  0.75899251     0.87440
C1822       C  0.91855503  0.60480590  0.66914845     0.87610
O1823       O  0.92640626  0.88220484  0.74437421    -0.74700
O1824       O  0.81922005  0.85716734  0.67791632    -0.74730
O1825       O  0.83107376  0.86397256  0.75118168    -0.74780
O1826       O  0.91378242  0.87426949  0.67091769    -0.74830
O1827       O  0.88301597  0.79038739  0.67389709    -0.74760
O1828       O  0.80078363  0.77994933  0.75482274    -0.74740
O1829       O  0.78880512  0.77297634  0.68091828    -0.74720
O1830       O  0.89673883  0.79872882  0.74669588    -0.74780
Ni1831     Ni  0.87366467  0.87242489  0.71095154     1.25410
Ni1832     Ni  0.84125187  0.78251162  0.71434474     1.25360
C1833       C  0.92618332  0.84368559  0.75896533     0.87480
C1834       C  0.78982137  0.81181512  0.66629956     0.87410
C1835       C  0.80526231  0.82095700  0.76763129     0.87440
C1836       C  0.90861132  0.83332231  0.65741776     0.87610
O1837       O  0.67428470  0.63701138  0.95128694    -0.74700
O1838       O  0.71716020  0.77783554  0.92253821    -0.74730
O1839       O  0.76585037  0.72699034  0.95258998    -0.74780
O1840       O  0.62559372  0.68784499  0.92021542    -0.74830
O1841       O  0.60387134  0.70421006  0.97286942    -0.74760
O1842       O  0.74421619  0.74836865  0.00269542    -0.74740
O1843       O  0.69343312  0.79597239  0.97350729    -0.74720
O1844       O  0.65557357  0.65745838  0.00338547    -0.74780
Ni1845     Ni  0.69622757  0.70708886  0.93452949     1.25410
Ni1846     Ni  0.67379413  0.72688081  0.98999672     1.25360
C1847       C  0.65981292  0.62464719  0.98412803     0.87480
C1848       C  0.71032887  0.80949799  0.94140321     0.87410
C1849       C  0.77727306  0.74224650  0.98522271     0.87440
C1850       C  0.59174403  0.69020539  0.94007373     0.87610
O1851       O  0.00554324  0.80095176  0.97308323    -0.74700
O1852       O  0.91097548  0.65985510  0.00492816    -0.74730
O1853       O  0.00836685  0.71105060  0.97333500    -0.74780
O1854       O  0.90612230  0.74560414  0.00677492    -0.74830
O1855       O  0.86592460  0.72911857  0.95464641    -0.74760
O1856       O  0.96056495  0.68332805  0.92481495    -0.74740
O1857       O  0.86449604  0.63863880  0.95540604    -0.74720
O1858       O  0.96464032  0.77831927  0.92134783    -0.74780
Ni1859     Ni  0.95893983  0.73028480  0.99142215     1.25410
Ni1860     Ni  0.91315742  0.70733310  0.93694241     1.25360
C1861       C  0.00262262  0.81273862  0.93999918     0.87480
C1862       C  0.87158816  0.62626895  0.98710546     0.87410
C1863       C  0.00047379  0.68995701  0.94236632     0.87440
C1864       C  0.86783645  0.74093759  0.98798462     0.87610
O1865       O  0.77042092  0.53797664  0.95508043    -0.74700
O1866       O  0.63106127  0.94048143  0.92352776    -0.74730
O1867       O  0.67935976  0.53847091  0.95383088    -0.74780
O1868       O  0.71917233  0.94056247  0.92376456    -0.74830
O1869       O  0.69647262  0.89712357  0.97498756    -0.74760
O1870       O  0.65623690  0.99561055  0.00518975    -0.74740
O1871       O  0.60679054  0.89755278  0.97434911    -0.74720
O1872       O  0.74866604  0.99488254  0.00623885    -0.74780
Ni1873     Ni  0.70062144  0.99052124  0.93726695     1.25410
Ni1874     Ni  0.67672410  0.94556499  0.99240410     1.25360
C1875       C  0.78281863  0.53304709  0.98739993     0.87480
C1876       C  0.59667165  0.90192435  0.94132041     0.87410
C1877       C  0.66147324  0.53380316  0.98574997     0.87440
C1878       C  0.71148387  0.90105025  0.94227701     0.87610
O1879       O  0.60420884  0.89660570  0.45203103    -0.74700
O1880       O  0.74724116  0.99098551  0.42287291    -0.74730
O1881       O  0.69283786  0.89261866  0.45179827    -0.74780
O1882       O  0.65888010  0.99623354  0.41968797    -0.74830
O1883       O  0.67508282  0.53414612  0.47210783    -0.74760
O1884       O  0.71824606  0.93666691  0.50176942    -0.74740
O1885       O  0.76652710  0.53559574  0.47261326    -0.74720
O1886       O  0.62778831  0.93541924  0.50432407    -0.74780
Ni1887     Ni  0.67509967  0.94326268  0.43452288     1.25410
Ni1888     Ni  0.69731340  0.98635317  0.48968360     1.25360
C1889       C  0.59339579  0.89850873  0.48526667     0.87480
C1890       C  0.77967818  0.53043170  0.44105229     0.87410
C1891       C  0.71127233  0.89753301  0.48359752     0.87440
C1892       C  0.66190048  0.53282465  0.43885261     0.87610
O1893       O  0.96042262  0.77595983  0.50399952    -0.74700
O1894       O  0.86667419  0.63382338  0.47441912    -0.74730
O1895       O  0.96548671  0.68869926  0.50880283    -0.74780
O1896       O  0.86249465  0.72170273  0.47380515    -0.74830
O1897       O  0.90703101  0.74576122  0.42348261    -0.74760
O1898       O  0.00588138  0.70557942  0.45702119    -0.74740
O1899       O  0.90793769  0.65705534  0.42268365    -0.74720
O1900       O  0.00581029  0.79552660  0.45416189    -0.74780
Ni1901     Ni  0.91277439  0.70430615  0.49225136     1.25410
Ni1902     Ni  0.95769047  0.72640637  0.43739937     1.25360
C1903       C  0.00021174  0.80841158  0.48565498     0.87480
C1904       C  0.86994641  0.62300512  0.44138756     0.87410
C1905       C  0.00348560  0.69273072  0.49054002     0.87440
C1906       C  0.86745180  0.73898658  0.44163524     0.87610
O1907       O  0.69492811  0.79280327  0.45269035    -0.74700
O1908       O  0.64491834  0.65078762  0.42559972    -0.74730
O1909       O  0.60244754  0.70486182  0.45610895    -0.74780
O1910       O  0.73959628  0.73905671  0.42156417    -0.74830
O1911       O  0.76389325  0.72442762  0.47417137    -0.74760
O1912       O  0.62233178  0.67680437  0.50476108    -0.74740
O1913       O  0.67504996  0.63250597  0.47382890    -0.74720
O1914       O  0.71151929  0.77061664  0.50548029    -0.74780
Ni1915     Ni  0.67005137  0.72229195  0.43693143     1.25410
Ni1916     Ni  0.69369778  0.70072409  0.49166202     1.25360
C1917       C  0.70875439  0.80454961  0.48559566     0.87480
C1918       C  0.65547867  0.61988887  0.44220815     0.87410
C1919       C  0.59079487  0.68677072  0.48822629     0.87440
C1920       C  0.77431901  0.73668940  0.44081644     0.87610
C1921       C  0.82910593  0.96649840  0.59838587    -0.20580
C1922       C  0.79293588  0.96921065  0.62048567    -0.07140
C1923       C  0.74553420  0.95746484  0.60533053     0.13720
C1924       C  0.72991702  0.92944631  0.57335267    -0.20630
C1925       C  0.76422444  0.92001765  0.55391333    -0.07150
C1926       C  0.81624884  0.94703292  0.56362776     0.13710
C1927       C  0.85740851  0.95673187  0.53689493    -0.23980
H1928       H  0.86768750  0.98063676  0.60792411     0.15000
H1929       H  0.68988152  0.91129419  0.56524081     0.15030
C1930       C  0.71159396  0.97356365  0.62252424    -0.23930
H1931       H  0.89644846  0.98171443  0.54821615     0.05240
H1932       H  0.85334684  0.97666784  0.51292579     0.08470
H1933       H  0.85421094  0.92078688  0.52807041     0.08470
H1934       H  0.73317656  0.01540345  0.62716745     0.08450
H1935       H  0.69592803  0.95250657  0.64829026     0.08450
H1936       H  0.68059211  0.96690558  0.60358468     0.05230
C1937       C  0.71048383  0.82515441  0.59399982    -0.20580
C1938       C  0.74125471  0.83156612  0.56371695    -0.07140
C1939       C  0.77963285  0.81793327  0.56718872     0.13720
C1940       C  0.78834641  0.80281570  0.60110160    -0.20630
C1941       C  0.76385846  0.80641256  0.63195062    -0.07150
C1942       C  0.72392582  0.81685889  0.62848847     0.13710
C1943       C  0.69775727  0.82182448  0.66125527    -0.23980
H1944       H  0.67989957  0.83331198  0.59116535     0.15000
H1945       H  0.81891522  0.79414197  0.60409238     0.15030
C1946       C  0.81359886  0.82085436  0.53664980    -0.23930
H1947       H  0.66777938  0.83116930  0.65403578     0.05240
H1948       H  0.72636045  0.85307649  0.67856766     0.08470
H1949       H  0.67948644  0.78535780  0.67682705     0.08470
H1950       H  0.80596945  0.83541172  0.51127860     0.08450
H1951       H  0.80755852  0.78220241  0.53177513     0.08450
H1952       H  0.85458524  0.84640086  0.54380237     0.05230
C1953       C  0.95554743  0.64107013  0.57290432    -0.20580
C1954       C  0.00903803  0.67526278  0.57477774    -0.07140
C1955       C  0.02989695  0.69386660  0.60998502     0.13720
C1956       C  0.99993261  0.67126335  0.64086029    -0.20630
C1957       C  0.94740794  0.63707638  0.63791427    -0.07150
C1958       C  0.92437931  0.62784335  0.60348404     0.13710
C1959       C  0.86726172  0.60267314  0.59868634    -0.23980
H1960       H  0.93791703  0.62083047  0.54832074     0.15000
H1961       H  0.01764717  0.68074502  0.66732449     0.15030
C1962       C  0.58371931  0.73661840  0.61635569    -0.23930
H1963       H  0.85595110  0.59827243  0.56982623     0.05240
H1964       H  0.85330241  0.62610368  0.61165285     0.08470
H1965       H  0.84861571  0.56484335  0.61124811     0.08470
H1966       H  0.60202990  0.75613606  0.59080530     0.08450
H1967       H  0.60693967  0.72337573  0.63082499     0.08450
H1968       H  0.58293895  0.76398513  0.63514875     0.05230
C1969       C  0.61021026  0.64306340  0.61799220    -0.20580
C1970       C  0.56547366  0.60289037  0.63362385    -0.07140
C1971       C  0.52151091  0.57723696  0.61082358     0.13720
C1972       C  0.52473278  0.59206543  0.57446545    -0.20630
C1973       C  0.56404552  0.64003364  0.56290615    -0.07150
C1974       C  0.61006430  0.66236820  0.58356423     0.13710
C1975       C  0.65909088  0.70807026  0.57140756    -0.23980
H1976       H  0.64588391  0.66122312  0.63317247     0.15000
H1977       H  0.49041124  0.57262220  0.55780922     0.15030
C1978       C  0.46954204  0.53551737  0.62205791    -0.23930
H1979       H  0.68482024  0.72681865  0.59450873     0.05240
H1980       H  0.65122839  0.73591099  0.55763456     0.08470
H1981       H  0.68033881  0.69588245  0.55386638     0.08470
H1982       H  0.44271785  0.54987235  0.61926006     0.08450
H1983       H  0.46562313  0.51940790  0.64926029     0.08450
H1984       H  0.45674078  0.50531264  0.60215049     0.05230
C1985       C  0.96222391  0.87272953  0.56242331    -0.20580
C1986       C  0.98211620  0.84051458  0.55735293    -0.07140
C1987       C  0.96545096  0.79818261  0.58112669     0.13720
C1988       C  0.93975544  0.79572561  0.61283176    -0.20630
C1989       C  0.93016500  0.83457020  0.62155095    -0.07150
C1990       C  0.93735006  0.87086242  0.59458861     0.13710
C1991       C  0.92109041  0.90913240  0.59996191    -0.23980
H1992       H  0.97259138  0.90400800  0.54353360     0.15000
H1993       H  0.92969339  0.76449955  0.63171504     0.15030
C1994       C  0.47390481  0.75484971  0.57448020    -0.23930
H1995       H  0.92712450  0.93201845  0.57510434     0.05240
H1996       H  0.94458652  0.93434297  0.62211513     0.08470
H1997       H  0.87980558  0.89025220  0.60700513     0.08470
H1998       H  0.50476695  0.76434419  0.55471736     0.08450
H1999       H  0.43714189  0.72178988  0.56506654     0.08450
H2000       H  0.48406491  0.74363466  0.60017125     0.05230
C2001       C  0.58284181  0.95421519  0.56250574    -0.20580
C2002       C  0.57297645  0.90395602  0.56436178    -0.07140
C2003       C  0.58274884  0.88693055  0.59734091     0.13720
C2004       C  0.58943085  0.91390691  0.62897411    -0.20630
C2005       C  0.59689819  0.96287458  0.62742368    -0.07150
C2006       C  0.59769251  0.98471277  0.59333294     0.13710
C2007       C  0.60747782  0.03764140  0.58991804    -0.23980
H2008       H  0.57470461  0.96808619  0.53772557     0.15000
H2009       H  0.59128130  0.89762201  0.65473246     0.15030
C2010       C  0.58596228  0.84019586  0.60016201    -0.23930
H2011       H  0.10790994  0.04964257  0.56147199     0.05240
H2012       H  0.64454999  0.06515081  0.60287813     0.08470
H2013       H  0.57510924  0.03652354  0.60351366     0.08470
H2014       H  0.58413929  0.82339897  0.57349614     0.08450
H2015       H  0.55477278  0.81333695  0.61822865     0.08450
H2016       H  0.62324492  0.85062728  0.61276675     0.05230
C2017       C  0.73227671  0.79076391  0.81061898    -0.20580
C2018       C  0.78481882  0.82042122  0.80351199    -0.07140
C2019       C  0.81815667  0.85121852  0.83123033     0.13720
C2020       C  0.79872794  0.85739293  0.86309967    -0.20630
C2021       C  0.74639504  0.83579987  0.86705427    -0.07150
C2022       C  0.71290756  0.79835144  0.84264221     0.13710
C2023       C  0.65709146  0.76680871  0.85010404    -0.23980
H2024       H  0.70628615  0.76436766  0.79061989     0.15000
H2025       H  0.82433357  0.88366574  0.88331662     0.15030
C2026       C  0.87435210  0.87530017  0.82862734    -0.23930
H2027       H  0.63518286  0.76853000  0.82655897     0.05240
H2028       H  0.64506240  0.77876633  0.87446566     0.08470
H2029       H  0.64997037  0.72784071  0.85491689     0.08470
H2030       H  0.88905631  0.90024411  0.80446697     0.08450
H2031       H  0.88114416  0.84303427  0.82821145     0.08450
H2032       H  0.89434997  0.89856078  0.85252720     0.05230
C2033       C  0.70251194  0.89125325  0.83226526    -0.20580
C2034       C  0.73521589  0.90831917  0.86259977    -0.07140
C2035       C  0.78302801  0.95429349  0.85909740     0.13720
C2036       C  0.79784801  0.97741620  0.82510789    -0.20630
C2037       C  0.77071796  0.95221045  0.79399586    -0.07150
C2038       C  0.72131098  0.90972910  0.79745925     0.13710
C2039       C  0.69086519  0.88241254  0.76447767    -0.23980
H2040       H  0.66620034  0.85694817  0.83525829     0.15000
H2041       H  0.83271104  0.01361015  0.82262707     0.15030
C2042       C  0.82170271  0.97691457  0.88931127    -0.23930
H2043       H  0.65379707  0.84786264  0.77133613     0.05240
H2044       H  0.71318988  0.86997363  0.74819707     0.08470
H2045       H  0.68313487  0.90853589  0.74794426     0.08470
H2046       H  0.80848759  0.95451052  0.91464209     0.08450
H2047       H  0.83037452  0.01642781  0.89463300     0.08450
H2048       H  0.85772106  0.97816796  0.88152509     0.05230
C2049       C  0.60162726  0.90811881  0.79434849    -0.20580
C2050       C  0.62334058  0.96095108  0.79327981    -0.07140
C2051       C  0.63665825  0.98771182  0.82586019     0.13720
C2052       C  0.61417457  0.96060932  0.85773656    -0.20630
C2053       C  0.58688999  0.90633681  0.85925376    -0.07150
C2054       C  0.58742201  0.88130436  0.82716197     0.13710
C2055       C  0.56579880  0.82498283  0.82561357    -0.23980
H2056       H  0.59249958  0.88723430  0.76931554     0.15000
H2057       H  0.61481248  0.98299733  0.88025084     0.15030
C2058       C  0.67141742  0.54495287  0.82676847    -0.23930
H2059       H  0.59195109  0.81492264  0.81250055     0.05240
H2060       H  0.53116577  0.80805982  0.80832107     0.08470
H2061       H  0.55826496  0.80872686  0.85314206     0.08470
H2062       H  0.65575879  0.56425858  0.81006799     0.08450
H2063       H  0.70978175  0.55518692  0.81609837     0.08450
H2064       H  0.67677445  0.55986371  0.85459042     0.05230
C2065       C  0.96577522  0.81569608  0.84987747    -0.20580
C2066       C  0.99292164  0.86346612  0.86555232    -0.07140
C2067       C  0.99152444  0.90347024  0.84698947     0.13720
C2068       C  0.97931961  0.89872739  0.80996794    -0.20630
C2069       C  0.95426843  0.85015579  0.79356007    -0.07150
C2070       C  0.94390723  0.80734553  0.81552011     0.13710
C2071       C  0.91038119  0.75253766  0.80377446    -0.23980
H2072       H  0.96834709  0.78606871  0.86189866     0.15000
H2073       H  0.98251762  0.93148421  0.79557305     0.15030
C2074       C  0.00026108  0.94962182  0.86713807    -0.23930
H2075       H  0.90593460  0.72495692  0.82513878     0.05240
H2076       H  0.92709979  0.74509172  0.77971954     0.08470
H2077       H  0.87064599  0.74421412  0.79829102     0.08470
H2078       H  0.03688520  0.96762839  0.88197347     0.08450
H2079       H  0.96932062  0.93798492  0.88737056     0.08450
H2080       H  0.99978744  0.97828884  0.84870657     0.05230
C2081       C  0.94949041  0.57409406  0.86518882    -0.20580
C2082       C  0.97130339  0.62573542  0.87435328    -0.07140
C2083       C  0.95943661  0.65620176  0.85178896     0.13720
C2084       C  0.93118511  0.63695049  0.82032936    -0.20630
C2085       C  0.92297774  0.59132888  0.80705370    -0.07150
C2086       C  0.93174749  0.55849376  0.82992123     0.13710
C2087       C  0.92549692  0.50863376  0.81734369    -0.23980
H2088       H  0.45727489  0.54966245  0.88233530     0.15000
H2089       H  0.92286453  0.66116168  0.80330763     0.15030
C2090       C  0.98217129  0.71136295  0.85659262    -0.23930
H2091       H  0.92989968  0.48712214  0.83998573     0.05240
H2092       H  0.95535189  0.51611695  0.79705534     0.08470
H2093       H  0.88696697  0.48374001  0.80555636     0.08470
H2094       H  0.01722656  0.72879606  0.87354003     0.08450
H2095       H  0.95082209  0.71395077  0.86926712     0.08450
H2096       H  0.99201035  0.73051122  0.83002158     0.05230
C2097       C  0.56358938  0.66607353  0.83145135    -0.20580
C2098       C  0.55812814  0.64298973  0.86571522    -0.07140
C2099       C  0.56679139  0.60140287  0.86846511     0.13720
C2100       C  0.57792888  0.58312480  0.83709884    -0.20630
C2101       C  0.58160871  0.60581559  0.80310362    -0.07150
C2102       C  0.57581103  0.64870789  0.80052314     0.13710
C2103       C  0.57918334  0.67422708  0.76473306    -0.23980
H2104       H  0.55548089  0.69669813  0.82847032     0.15000
H2105       H  0.58161174  0.54957898  0.83904349     0.15030
C2106       C  0.55997893  0.57290083  0.90343640    -0.23930
H2107       H  0.57301714  0.70713489  0.76745126     0.05240
H2108       H  0.54941625  0.64635453  0.74609323     0.08470
H2109       H  0.61787890  0.68864998  0.75287784     0.08470
H2110       H  0.55356500  0.59129191  0.92668783     0.08450
H2111       H  0.59459977  0.56996378  0.90905600     0.08450
H2112       H  0.52582044  0.53421107  0.90178605     0.05230
C2113       C  0.84219739  0.99232204  0.36218561    -0.20580
C2114       C  0.81077972  0.01292611  0.36854451    -0.07140
C2115       C  0.76628378  0.49577260  0.34650060     0.13720
C2116       C  0.76092849  0.96847271  0.31515532    -0.20630
C2117       C  0.79841736  0.95721395  0.30528619    -0.07150
C2118       C  0.83640720  0.96448928  0.33089565     0.13710
C2119       C  0.87077192  0.94288699  0.32596406    -0.23980
H2120       H  0.87477821  0.00268019  0.37987937     0.15000
H2121       H  0.72853214  0.95845072  0.29733585     0.15030
C2122       C  0.72356136  0.50536213  0.35418519    -0.23930
H2123       H  0.89777267  0.95385761  0.34876243     0.05240
H2124       H  0.89258723  0.95658929  0.30089331     0.08470
H2125       H  0.84868874  0.90103428  0.32434019     0.08470
H2126       H  0.73388034  0.53567865  0.37423180     0.08450
H2127       H  0.68979187  0.46902255  0.36355674     0.08450
H2128       H  0.71233173  0.51637112  0.32889908     0.05230
C2129       C  0.88504634  0.61658481  0.29673933    -0.20580
C2130       C  0.93585903  0.62835202  0.29808713    -0.07140
C2131       C  0.95897449  0.63224045  0.33227414     0.13720
C2132       C  0.92763646  0.61504521  0.36316461    -0.20630
C2133       C  0.87612228  0.60307790  0.36154759    -0.07150
C2134       C  0.85823366  0.61113712  0.32834263     0.13710
C2135       C  0.80990733  0.61216495  0.32513270    -0.23980
H2136       H  0.86734208  0.61524879  0.27089113     0.15000
H2137       H  0.94296724  0.60922156  0.38811045     0.15030
C2138       C  0.01548181  0.65338230  0.33737579    -0.23930
H2139       H  0.81792308  0.64834736  0.31224287     0.05240
H2140       H  0.79287739  0.61028545  0.35176805     0.08470
H2141       H  0.78373545  0.58075074  0.30716710     0.08470
H2142       H  0.53686446  0.66586412  0.31174059     0.08450
H2143       H  0.02179384  0.62430990  0.35083543     0.08450
H2144       H  0.03121302  0.68728246  0.35507538     0.05230
C2145       C  0.89202385  0.63663984  0.12402944    -0.20580
C2146       C  0.94287640  0.64864274  0.12658228    -0.07140
C2147       C  0.96938050  0.65205960  0.09453929     0.13720
C2148       C  0.94063399  0.62667849  0.06374900    -0.20630
C2149       C  0.88700063  0.60605116  0.06319765    -0.07150
C2150       C  0.86574515  0.61925892  0.09143614     0.13710
C2151       C  0.81835458  0.62071582  0.08545121    -0.23980
H2152       H  0.87244959  0.63922302  0.14753794     0.15000
H2153       H  0.95997311  0.62459758  0.04006966     0.15030
C2154       C  0.52701262  0.68457731  0.09245132    -0.23930
H2155       H  0.83032025  0.66016040  0.07792033     0.05240
H2156       H  0.79522120  0.60817756  0.11032364     0.08470
H2157       H  0.79670430  0.59841688  0.06188690     0.08470
H2158       H  0.54564790  0.67374155  0.11350767     0.08450
H2159       H  0.53848380  0.72514226  0.09667770     0.08450
H2160       H  0.54166957  0.68168882  0.06578011     0.05230
C2161       C  0.78041262  0.99731015  0.07686404    -0.20580
C2162       C  0.82666647  0.01418945  0.05852623    -0.07140
C2163       C  0.86017801  0.99921186  0.07290414     0.13720
C2164       C  0.85446096  0.98203477  0.10880266    -0.20630
C2165       C  0.81041772  0.97105071  0.12882102    -0.07150
C2166       C  0.77015900  0.97276899  0.11041533     0.13710
C2167       C  0.71637436  0.94896329  0.12515609    -0.23980
H2168       H  0.75278626  0.50515893  0.06608555     0.15000
H2169       H  0.88381917  0.97586148  0.12066307     0.15030
C2170       C  0.90222389  0.00270570  0.04993772    -0.23930
H2171       H  0.68991839  0.95149235  0.10550869     0.05240
H2172       H  0.71652288  0.96812069  0.15043829     0.08470
H2173       H  0.70037064  0.90743643  0.12997995     0.08470
H2174       H  0.92830697  0.54199505  0.04087024     0.08450
H2175       H  0.88516579  0.97970817  0.02536002     0.08450
H2176       H  0.92504181  0.98930389  0.06478532     0.05230
C2177       C  0.79075397  0.73674886  0.33064964    -0.20580
C2178       C  0.79907499  0.76675139  0.36148724    -0.07140
C2179       C  0.78589939  0.80539132  0.35967547     0.13720
C2180       C  0.76747609  0.81382699  0.32693648    -0.20630
C2181       C  0.76948314  0.79034006  0.29512891    -0.07150
C2182       C  0.77999054  0.75047138  0.29702861     0.13710
C2183       C  0.78205194  0.72418271  0.26350064    -0.23980
H2184       H  0.79871406  0.70604592  0.33208605     0.15000
H2185       H  0.75841967  0.84410281  0.32526625     0.15030
C2186       C  0.79331561  0.84016133  0.39068618    -0.23930
H2187       H  0.79141405  0.69397110  0.26970666     0.05240
H2188       H  0.81224035  0.75233943  0.24508437     0.08470
H2189       H  0.74419104  0.70631790  0.24958141     0.08470
H2190       H  0.81086138  0.83296656  0.41463738     0.08450
H2191       H  0.75554569  0.83510778  0.39830126     0.08450
H2192       H  0.81870923  0.88066751  0.38291918     0.05230
C2193       C  0.75438476  0.76146177  0.07334797    -0.20580
C2194       C  0.80343059  0.78813218  0.05722162    -0.07140
C2195       C  0.83670380  0.83883652  0.06698769     0.13720
C2196       C  0.83001224  0.85452480  0.10061773    -0.20630
C2197       C  0.78534512  0.82304680  0.12092063    -0.07150
C2198       C  0.74385433  0.78060054  0.10413266     0.13710
C2199       C  0.69066720  0.75294081  0.11997308    -0.23980
H2200       H  0.72658207  0.72324043  0.06472538     0.15000
H2201       H  0.86034359  0.89025365  0.11137186     0.15030
C2202       C  0.88277452  0.87270107  0.04417217    -0.23930
H2203       H  0.66346404  0.72031011  0.10308751     0.05240
H2204       H  0.67564111  0.77950735  0.12153025     0.08470
H2205       H  0.69177880  0.73861219  0.14730831     0.08470
H2206       H  0.88101085  0.85555265  0.01761958     0.08450
H2207       H  0.91820774  0.87957807  0.05783048     0.08450
H2208       H  0.88407979  0.90886498  0.03871861     0.05230
C2209       C  0.94137841  0.85547394  0.32897434    -0.20580
C2210       C  0.94292393  0.82046630  0.30525557    -0.07140
C2211       C  0.92337697  0.76982004  0.31667652     0.13720
C2212       C  0.89517121  0.75314345  0.34878447    -0.20630
C2213       C  0.88760348  0.78698186  0.36979906    -0.07150
C2214       C  0.91745187  0.83943609  0.36251646     0.13710
C2215       C  0.92431523  0.87802250  0.39018349    -0.23980
H2216       H  0.96040853  0.89564703  0.32173850     0.15000
H2217       H  0.87484729  0.71281363  0.35568774     0.15030
C2218       C  0.92821059  0.73178082  0.29471296    -0.23930
H2219       H  0.96601678  0.90452446  0.39504949     0.05240
H2220       H  0.90643059  0.85953644  0.41626801     0.08470
H2221       H  0.90669495  0.90003945  0.38077845     0.08470
H2222       H  0.94605557  0.71538082  0.31222908     0.08450
H2223       H  0.95233724  0.74661552  0.27054036     0.08450
H2224       H  0.88962979  0.70309487  0.28497715     0.05230
C2225       C  0.87280406  0.76299649  0.13853842    -0.20580
C2226       C  0.92519776  0.79671332  0.13571451    -0.07140
C2227       C  0.94841087  0.80623197  0.10145274     0.13720
C2228       C  0.91720611  0.79224705  0.07051109    -0.20630
C2229       C  0.86341955  0.75913728  0.07237423    -0.07150
C2230       C  0.84268375  0.74121170  0.10784618     0.13710
C2231       C  0.78827724  0.70021639  0.11499711    -0.23980
H2232       H  0.85513836  0.75337919  0.16498366     0.15000
H2233       H  0.93525409  0.81179013  0.04568361     0.15030
C2234       C  0.00578431  0.83220769  0.09725109    -0.23930
H2235       H  0.78784876  0.67043370  0.13273570     0.05240
H2236       H  0.76847004  0.68243706  0.08957938     0.08470
H2237       H  0.76787973  0.71571519  0.13008749     0.08470
H2238       H  0.51977353  0.80834825  0.11021881     0.08450
H2239       H  0.52455418  0.86964482  0.11022446     0.08450
H2240       H  0.01743905  0.83787002  0.06850025     0.05230
C2241       C  0.62825626  0.99111596  0.11668177    -0.20580
C2242       C  0.57653793  0.96699154  0.12500321    -0.07140
C2243       C  0.54103120  0.96468927  0.09882147     0.13720
C2244       C  0.55850746  0.98365165  0.06411072    -0.20630
C2245       C  0.61111292  0.51583709  0.05789342    -0.07150
C2246       C  0.64597281  0.01722638  0.08395128     0.13710
C2247       C  0.70208392  0.54945149  0.07867142    -0.23980
H2248       H  0.65511026  0.99404985  0.13736258     0.15000
H2249       H  0.53145426  0.48142974  0.04390713     0.15030
C2250       C  0.48579778  0.94645326  0.10782029    -0.23930
H2251       H  0.72225938  0.04159918  0.10049989     0.05240
H2252       H  0.71563055  0.59021810  0.07904760     0.08470
H2253       H  0.71260188  0.54205243  0.05216270     0.08470
H2254       H  0.48358826  0.97026292  0.12931241     0.08450
H2255       H  0.46544881  0.90577221  0.11620765     0.08450
H2256       H  0.46575145  0.95115689  0.08453781     0.05230
C2257       C  0.64570733  0.62069487  0.08722147    -0.20580
C2258       C  0.61386146  0.59690025  0.05749200    -0.07140
C2259       C  0.56258452  0.58547633  0.05919230     0.13720
C2260       C  0.54178134  0.58633096  0.09280227    -0.20630
C2261       C  0.57276044  0.60141613  0.12410666    -0.07150
C2262       C  0.62515995  0.61796727  0.12126477     0.13710
C2263       C  0.65781029  0.62709427  0.15442899    -0.23980
H2264       H  0.68602428  0.63642466  0.08468972     0.15000
H2265       H  0.50166015  0.57551351  0.09456168     0.15030
C2266       C  0.53004019  0.57088061  0.02567769    -0.23930
H2267       H  0.69683473  0.63512777  0.14757333     0.05240
H2268       H  0.63982056  0.59206575  0.17159144     0.08470
H2269       H  0.66119586  0.65924747  0.17030535     0.08470
H2270       H  0.49771194  0.53110817  0.02789556     0.08450
H2271       H  0.55225127  0.57338482  0.00134425     0.08450
H2272       H  0.51540871  0.59742145  0.02140049     0.05230
C2273       C  0.55657454  0.55465827  0.35732888    -0.20580
C2274       C  0.60573148  0.59287485  0.36830095    -0.07140
C2275       C  0.62937904  0.63823305  0.34688491     0.13720
C2276       C  0.61134909  0.63806513  0.31202611    -0.20630
C2277       C  0.56890598  0.59471621  0.29774054    -0.07150
C2278       C  0.54007138  0.55325843  0.32158694     0.13710
C2279       C  0.49078362  0.50851621  0.31040118    -0.23980
H2280       H  0.53568658  0.52108639  0.37443183     0.15000
H2281       H  0.63153224  0.67245791  0.29565761     0.15030
C2282       C  0.67516692  0.68689078  0.35873640    -0.23930
H2283       H  0.49573787  0.49056538  0.28634321     0.05240
H2284       H  0.46457817  0.52326942  0.30462672     0.08470
H2285       H  0.47530287  0.47891963  0.33185015     0.08470
H2286       H  0.70372677  0.67905971  0.37149474     0.08450
H2287       H  0.66283300  0.70734380  0.37680639     0.08450
H2288       H  0.69319435  0.71324154  0.33578205     0.05230
C2289       C  0.63711008  0.02950587  0.29092421    -0.20580
C2290       C  0.60181622  0.97759350  0.29384565    -0.07140
C2291       C  0.59085869  0.95390728  0.32823124     0.13720
C2292       C  0.60480341  0.98453760  0.35875029    -0.20630
C2293       C  0.64002735  0.53739949  0.35666960    -0.07150
C2294       C  0.65961351  0.55850208  0.32174399     0.13710
C2295       C  0.70451949  0.61110187  0.31583054    -0.23980
H2296       H  0.64819603  0.04730008  0.26447592     0.15000
H2297       H  0.58534472  0.96696081  0.38377636     0.15030
C2298       C  0.56605981  0.89722093  0.33418669    -0.23930
H2299       H  0.73113590  0.60892339  0.29688675     0.05240
H2300       H  0.72436891  0.62788149  0.34153051     0.08470
H2301       H  0.69337666  0.63611119  0.30163248     0.08470
H2302       H  0.59396823  0.88924982  0.34817724     0.08450
H2303       H  0.55506602  0.87558715  0.30887793     0.08450
H2304       H  0.53223107  0.88325650  0.35195642     0.05230
loop_ 
_geom_bond_atom_site_label_1 
_geom_bond_atom_site_label_2 
_geom_bond_distance 
_geom_bond_site_symmetry_2 
_ccdc_geom_bond_type 
C1            C2   1.409       .  D
C1          C546   1.519       .  S
C1          C565   1.509       .  S
C2          C164   1.575       .  S
C2          C190   1.552       .  S
C3            C4   1.388       .  D
C3          C517   1.489       .  S
C3          C530   1.505       .  S
C4          C119   1.559   1_554  S
C4          C149   1.569   1_554  S
O5          Ni13   1.922   1_455  S
O5           C15   1.284       .  A
O6        Ni1165   1.932       .  S
O6           C16   1.287       .  A
O7        Ni1165   1.872       .  S
O7           C17   1.269       .  A
O8          Ni13   1.871   1_455  S
O8           C18   1.268       .  A
O9          Ni14   1.925       .  S
O9           C18   1.286       .  A
O10         Ni14   1.926   1_655  S
O10        C1169   1.287       .  A
O11         Ni14   1.909   1_655  S
O11        C1168   1.275       .  A
O12         Ni14   1.898       .  S
O12          C15   1.273       .  A
Ni13       O1158   1.932       .  S
Ni13       O1159   1.872       .  S
Ni13        Ni14   2.392   1_655  S
C15         C562   1.464       .  S
C16        O1163   1.275       .  A
C16         C498   1.476       .  S
C17        O1162   1.287       .  A
C17         C482   1.469       .  S
C18         C514   1.460       .  S
C19          C20   1.408       .  D
C19         C121   1.567   1_554  S
C19         C136   1.561   1_554  S
C20         C466   1.498       .  S
C20         C501   1.533       .  S
C21          C22   1.388       .  D
C21         C450   1.499       .  S
C21         C485   1.497       .  S
C22         C178   1.560       .  S
C22         C192   1.568       .  S
C23          C24   1.396       .  D
C23         C421   1.516       .  S
C23        C1010   1.503       .  S
C24         C134   1.550   1_554  S
C24         C147   1.564   1_554  S
C25          C26   1.396       .  D
C25         C405   1.506       .  S
C25         C962   1.507       .  S
C26         C162   1.548       .  S
C26         C176   1.563       .  S
O27       Ni1187   1.895       .  S
O27          C37   1.276       .  A
O28         Ni35   1.905   1_455  S
O28          C38   1.276       .  A
O29         Ni35   1.925   1_455  S
O29          C39   1.284       .  A
O30       Ni1187   1.919       .  S
O30          C40   1.285       .  A
O31         Ni36   1.911       .  S
O31        C1192   1.276   1_455  A
O32         Ni36   1.891       .  S
O32          C39   1.277       .  A
O33         Ni36   1.919       .  S
O33          C38   1.284       .  A
O34         Ni36   1.932   1_655  S
O34        C1189   1.284       .  A
Ni35       O1179   1.895       .  S
Ni35       O1182   1.919       .  S
Ni35        Ni36   2.390   1_655  S
C37        O1186   1.284       .  A
C37         C402   1.470       .  S
C38         C533   1.470       .  S
C39         C549   1.494       .  S
C40        O1183   1.276       .  A
C40         C418   1.468       .  S
O41         Ni49   1.909       .  S
O41          C51   1.279       .  A
O42         Ni49   1.909       .  S
O42          C52   1.280       .  A
O43         Ni49   1.915       .  S
O43          C53   1.279       .  A
O44         Ni49   1.907       .  S
O44          C54   1.281       .  A
O45         Ni50   1.901       .  S
O45          C54   1.278       .  A
O46         Ni50   1.906       .  S
O46          C53   1.280       .  A
O47         Ni50   1.894       .  S
O47          C52   1.279       .  A
O48         Ni50   1.899       .  S
O48          C51   1.277       .  A
Ni49        Ni50   2.388       .  S
C51         C389   1.478       .  S
C52         C469   1.471       .  S
C53         C453   1.463       .  S
C54         C437   1.486       .  S
C55          C56   1.399       .  D
C55         C370   1.511       .  S
C55        C1506   1.500   1_455  S
C56         C122   1.555       .  S
C56        C1287   1.569       .  S
C57          C58   1.414       .  D
C57         C148   1.553       .  S
C57        C1285   1.586       .  S
C58         C325   1.540       .  S
C58        C1490   1.506   1_455  S
C59          C60   1.383       .  D
C59         C293   1.473       .  S
C59         C306   1.500       .  S
C60         C120   1.557       .  S
C60         C150   1.546       .  S
C61          C62   1.390       .  D
C61         C274   1.500       .  S
C61        C1410   1.500   1_455  S
C62         C161   1.562       .  S
C62        C1327   1.548       .  S
O63         Ni71   1.904   1_565  S
O63          C73   1.278       .  A
O64         Ni71   1.917       .  S
O64          C74   1.280       .  A
O65         Ni71   1.921       .  S
O65          C75   1.279       .  A
O66         Ni71   1.913   1_565  S
O66          C76   1.282       .  A
O67         Ni72   1.915       .  S
O67          C76   1.278   1_545  A
O68         Ni72   1.901       .  S
O68          C75   1.281       .  A
O69         Ni72   1.931       .  S
O69          C74   1.283       .  A
O70         Ni72   1.932       .  S
O70          C73   1.284   1_545  A
Ni71        Ni72   2.387       .  S
C73         C853   1.471       .  S
C74         C373   1.479       .  S
C75         C242   1.497       .  S
C76         C898   1.469       .  S
C77          C78   1.413       .  D
C77         C191   1.551       .  S
C77        C1329   1.573       .  S
C78         C245   1.516       .  S
C78        C1378   1.522       .  S
C79          C80   1.388       .  D
C79         C163   1.564       .  S
C79         C189   1.568       .  S
C80         C197   1.499       .  S
C80         C210   1.499       .  S
O81         Ni89   1.933       .  S
O81          C91   1.290       .  A
O82         Ni89   1.931       .  S
O82          C92   1.287   1_545  A
O83         Ni89   1.893       .  S
O83          C93   1.272   1_545  A
O84         Ni89   1.906       .  S
O84          C94   1.273       .  A
O85         Ni90   1.933       .  S
O85          C94   1.287       .  A
O86         Ni90   1.935   1_565  S
O86          C93   1.288       .  A
O87         Ni90   1.880   1_565  S
O87          C92   1.271       .  A
O88         Ni90   1.863       .  S
O88          C91   1.265       .  A
Ni89        Ni90   2.390       .  S
C91         C357   1.466       .  S
C92         C770   1.476       .  S
C93         C885   1.470       .  S
C94         C229   1.478       .  S
O95        Ni103   1.912       .  S
O95         C105   1.279       .  A
O96        Ni103   1.903       .  S
O96         C106   1.279       .  A
O97        Ni103   1.908       .  S
O97         C107   1.280       .  A
O98        Ni103   1.908       .  S
O98         C108   1.280       .  A
O99        Ni104   1.903       .  S
O99         C108   1.278       .  A
O100       Ni104   1.921       .  S
O100        C107   1.280       .  A
O101       Ni104   1.907       .  S
O101        C106   1.278       .  A
O102       Ni104   1.905       .  S
O102        C105   1.279       .  A
Ni103      Ni104   2.388       .  S
C105        C341   1.492       .  S
C106        C213   1.458       .  S
C107        C290   1.470       .  S
C108        C261   1.479       .  S
O109       Ni117   1.973       .  S
O109        C119   1.285       .  A
O110       Ni117   1.952       .  S
O110        C120   1.296       .  A
O111       Ni117   1.980       .  S
O111        C121   1.284       .  A
O112       Ni117   1.971       .  S
O112        C122   1.296       .  A
O113       Ni118   1.959       .  S
O113        C122   1.283       .  A
O114       Ni118   1.934   1_554  S
O114        C121   1.286   1_554  A
O115       Ni118   1.958       .  S
O115        C120   1.279       .  A
O116       Ni118   1.947   1_554  S
O116        C119   1.292   1_554  A
Ni117      Ni118   2.353       .  S
O123       Ni131   1.989       .  S
O123        C133   1.290       .  A
O124       Ni131   1.938   1_554  S
O124        C134   1.289   1_554  A
O125       Ni131   1.982       .  S
O125        C135   1.285       .  A
O126       Ni131   1.963   1_554  S
O126        C136   1.289   1_554  A
O127       Ni132   1.971       .  S
O127        C136   1.287       .  A
O128       Ni132   1.964       .  S
O128        C135   1.287       .  A
O129       Ni132   1.960       .  S
O129        C134   1.280       .  A
O130       Ni132   1.993       .  S
O130        C133   1.293       .  A
Ni131      Ni132   2.345       .  S
C133       C1209   1.586       .  S
C135       C1208   1.569       .  S
O137       Ni721   1.966   1_545  S
O137        C147   1.284       .  A
O138       Ni145   1.932       .  S
O138        C148   1.281       .  A
O139       Ni721   1.972   1_545  S
O139        C149   1.283       .  A
O140       Ni145   1.937       .  S
O140        C150   1.290       .  A
O141       Ni146   1.964       .  S
O141        C150   1.283       .  A
O142       Ni146   1.973   1_554  S
O142        C725   1.298   1_554  A
O143       Ni146   1.975       .  S
O143        C148   1.283       .  A
O144       Ni146   1.978   1_554  S
O144        C723   1.293   1_554  A
Ni145       O713   1.966       .  S
Ni145       O715   1.972       .  S
Ni145      Ni146   2.352       .  S
C147        O720   1.293   1_546  A
C149        O718   1.298   1_546  A
O151       Ni159   1.981       .  S
O151        C161   1.289       .  A
O152       Ni159   1.954       .  S
O152        C738   1.291       .  A
O153       Ni159   1.966       .  S
O153        C163   1.279       .  A
O154       Ni159   1.975       .  S
O154        C740   1.291       .  A
O155       Ni736   1.984   1_545  S
O155        C164   1.289       .  A
O156       Ni160   1.954       .  S
O156        C163   1.295       .  A
O157       Ni736   1.955   1_545  S
O157        C162   1.278       .  A
O158       Ni160   1.946       .  S
O158        C161   1.288       .  A
Ni159      Ni160   2.348       .  S
Ni160       O731   1.984       .  S
Ni160       O733   1.955       .  S
C162        O728   1.291   1_545  A
C164        O730   1.291   1_545  A
O165       Ni173   1.956       .  S
O165        C175   1.293       .  A
O166       Ni173   1.987       .  S
O166        C176   1.292       .  A
O167       Ni173   1.967       .  S
O167        C177   1.288       .  A
O168       Ni173   1.958       .  S
O168        C178   1.278       .  A
O169       Ni174   1.959       .  S
O169        C178   1.297       .  A
O170       Ni174   1.986       .  S
O170        C177   1.292       .  A
O171       Ni174   1.946       .  S
O171        C176   1.287       .  A
O172       Ni174   1.955       .  S
O172        C175   1.278       .  A
Ni173      Ni174   2.351       .  S
C175       C1214   1.548       .  S
C177       C1229   1.573       .  S
O179       Ni187   1.970       .  S
O179        C189   1.283       .  A
O180       Ni187   1.952       .  S
O180        C190   1.283       .  A
O181       Ni187   1.966       .  S
O181        C191   1.282       .  A
O182       Ni187   1.978       .  S
O182        C192   1.294       .  A
O183       Ni188   1.971       .  S
O183        C192   1.284       .  A
O184       Ni188   1.954       .  S
O184        C191   1.285       .  A
O185       Ni188   1.972       .  S
O185        C190   1.283       .  A
O186       Ni188   1.980       .  S
O186        C189   1.296       .  A
Ni187      Ni188   2.342       .  S
C193        C194   1.407       .  A
C193        C198   1.395       .  A
C193        H200   1.074       .  S
C194        C668   1.476       .  S
C194        C195   1.400       .  A
C195        C196   1.402       .  A
C195        C202   1.491       .  S
C196        C197   1.412       .  A
C196        H201   1.084       .  S
C197        C198   1.398       .  A
C198        C199   1.502       .  S
C199        H203   1.109       .  S
C199        H204   1.111       .  S
C199        H205   1.100       .  S
C202        H206   1.109       .  S
C202        H207   1.110       .  S
C202        H208   1.100       .  S
C209        C210   1.412       .  A
C209        C214   1.398       .  A
C209        H216   1.074       .  S
C210        C211   1.418       .  A
C211        C212   1.403       .  A
C211        C218   1.507       .  S
C212        C213   1.404       .  A
C212        H217   1.084       .  S
C213        C214   1.397       .  A
C214        C215   1.507       .  S
C215        H219   1.106       .  S
C215        H220   1.110       .  S
C215        H221   1.110       .  S
C218        H222   1.107       .  S
C218        H223   1.109       .  S
C218        H224   1.107       .  S
C225        C226   1.408       .  A
C225        C230   1.400       .  A
C225        H232   1.081       .  S
C226       C1230   1.522       .  S
C226        C227   1.438       .  A
C227        C228   1.404       .  A
C227       C1386   1.495       .  S
C228        C229   1.388       .  A
C228        H233   1.085       .  S
C229        C230   1.412       .  A
C230        C231   1.498       .  S
C231        H235   1.111       .  S
C231        H236   1.110       .  S
C231        H237   1.090       .  S
C234       C1379   1.495       .  S
C234        H238   1.104       .  S
C234        H239   1.102       .  S
C234        H240   1.102       .  S
C241        C242   1.403       .  A
C241        C246   1.401       .  A
C241        H248   1.084       .  S
C242        C243   1.425       .  A
C243        C244   1.407       .  A
C243        C250   1.488   1_455  S
C244        C245   1.396       .  A
C244        H249   1.086   1_455  S
C245        C246   1.419       .  A
C246        C247   1.492       .  S
C247        H251   1.102       .  S
C247        H252   1.106       .  S
C247        H253   1.108       .  S
C250        H254   1.100       .  S
C250        H255   1.098       .  S
C250        H256   1.091       .  S
C257        C258   1.398       .  A
C257        C262   1.402       .  A
C257        H264   1.085       .  S
C258       C1213   1.500       .  S
C258        C259   1.416       .  A
C259        C260   1.396       .  A
C259       C1418   1.485       .  S
C260        C261   1.392       .  A
C260        H265   1.085       .  S
C261        C262   1.413       .  A
C262        C263   1.489       .  S
C263        H267   1.107       .  S
C263        H268   1.105       .  S
C263        H269   1.106       .  S
C266       C1411   1.485       .  S
C266        H270   1.106   1_655  S
C266        H271   1.109       .  S
C266        H272   1.101       .  S
C273        C274   1.399       .  A
C273        C278   1.402       .  A
C273        H280   1.084       .  S
C274        C275   1.409       .  A
C275        C276   1.395       .  A
C275        C282   1.473       .  S
C276        C277   1.386       .  A
C276        H281   1.085       .  S
C277        C649   1.471       .  S
C277        C278   1.416       .  A
C278        C279   1.483       .  S
C279        H284   1.110       .  S
C279        H285   1.088       .  S
C279       H1435   1.111       .  S
C282        H286   1.108       .  S
C282        H287   1.104       .  S
C282        H288   1.103       .  S
H283       C1431   1.111       .  S
C289        C290   1.394       .  A
C289        C294   1.402       .  A
C289        H296   1.084       .  S
C290        C291   1.413       .  A
C291        C292   1.382       .  A
C291        C298   1.469       .  S
C292        C293   1.376       .  A
C292        H297   1.085       .  S
C293        C294   1.407       .  A
C294        C295   1.480       .  S
C295        H299   1.108       .  S
C295        H300   1.109       .  S
C295        H301   1.102       .  S
C298        H302   1.106       .  S
C298        H303   1.098       .  S
C298        H304   1.107       .  S
C305        C306   1.410       .  A
C305        C310   1.407       .  A
C305        H312   1.066       .  S
C306        C307   1.413       .  A
C307        C308   1.398       .  A
C307        C314   1.508       .  S
C308        C309   1.400       .  A
C308        H313   1.071       .  S
C309        C669   1.470       .  S
C309        C310   1.395       .  A
C310        C311   1.505       .  S
C311        H315   1.105       .  S
C311        H316   1.111       .  S
C311        H317   1.110       .  S
C314        H318   1.105       .  S
C314        H319   1.110       .  S
C314        H320   1.108       .  S
C321        C322   1.391       .  A
C321        C326   1.400       .  A
C321        H328   1.085       .  S
C322        C652   1.469       .  S
C322        C323   1.404       .  A
C323        C324   1.400       .  A
C323        C906   1.507       .  S
C324        C325   1.420       .  A
C324        H329   1.079       .  S
C325        C326   1.427       .  A
C326        C327   1.490       .  S
C327        H331   1.099       .  S
C327        H332   1.104       .  S
C327        H333   1.104       .  S
C330        C899   1.507   1_545  S
C330        H334   1.103       .  S
C330        H335   1.110       .  S
C330        H336   1.111       .  S
C337        C338   1.386       .  A
C337        C342   1.397       .  A
C337        H344   1.036       .  S
C338       C1210   1.506       .  S
C338        C339   1.408       .  A
C339        C340   1.411       .  A
C339        C346   1.497       .  S
C340        C341   1.414       .  A
C340        H345   1.083       .  S
C341        C342   1.420       .  A
C342        C343   1.511       .  S
C343        H347   1.104       .  S
C343        H348   1.111       .  S
C343        H349   1.109       .  S
C346        H350   1.098       .  S
C346        H351   1.110       .  S
C346        H352   1.106       .  S
C353        C354   1.403       .  A
C353        C358   1.405       .  A
C353       H1512   1.083       .  S
C354       C1207   1.500       .  S
C354        C355   1.413       .  A
C355        C356   1.388       .  A
C355        C362   1.465       .  S
C356        C357   1.375       .  A
C356        H361   1.084       .  S
C357        C358   1.424       .  A
C358        C359   1.507       .  S
C359        H363   1.106   1_545  S
C359        H364   1.109       .  S
C359        H365   1.105   1_545  S
H360       C1505   1.083       .  S
C362        H366   1.106       .  S
C362        H367   1.098       .  S
C362        H368   1.102       .  S
C369        C370   1.415       .  A
C369        C374   1.398       .  A
C369        H376   1.079       .  S
C370        C371   1.415       .  A
C371        C372   1.411       .  A
C371        C378   1.508       .  S
C372        C373   1.408       .  A
C372        H377   1.080       .  S
C373        C374   1.401       .  A
C374        C375   1.508       .  S
C375        H379   1.111       .  S
C375        H380   1.111       .  S
C375        H381   1.110       .  S
C378        H382   1.105       .  S
C378        H383   1.110       .  S
C378        H384   1.103       .  S
C385        C386   1.398       .  A
C385        C390   1.403       .  A
C385        H392   1.085       .  S
C386        C601   1.507       .  S
C386        C963   1.423       .  A
C387        C962   1.423   1_565  A
C387        C964   1.398       .  A
C387        C394   1.489   1_565  S
C388        C389   1.390       .  A
C388        C963   1.398       .  A
C388        H393   1.085       .  S
C389        C390   1.413       .  A
C390        C391   1.495       .  S
C391        H395   1.100       .  S
C391        H396   1.094       .  S
C391        H397   1.097       .  S
C394        H398   1.105       .  S
C394        H399   1.109   1_545  S
C394        H400   1.100       .  S
C401        C402   1.386       .  A
C401        C406   1.391       .  A
C401        H408   1.086       .  S
C402        C403   1.420       .  A
C403        C404   1.409       .  A
C403        C410   1.496       .  S
C404        C405   1.405       .  A
C404        H409   1.084       .  S
C405        C406   1.410       .  A
C406        C407   1.477       .  S
C407        H411   1.101       .  S
C407        H412   1.106       .  S
C407        H413   1.105       .  S
C410        H415   1.106       .  S
C410        H416   1.110       .  S
C410       H1566   1.104       .  S
H414       C1562   1.104       .  S
C417        C418   1.387       .  A
C417        C422   1.396       .  A
C417        H424   1.084       .  S
C418        C419   1.413       .  A
C419        C420   1.407       .  A
C419       C1578   1.503       .  S
C420        C421   1.407       .  A
C420        H425   1.080       .  S
C421        C422   1.399       .  A
C422        C423   1.467       .  S
C423        H427   1.094       .  S
C423        H428   1.104       .  S
C423        H429   1.099       .  S
C426       C1571   1.503   1_455  S
C426        H430   1.100       .  S
C426        H431   1.110       .  S
C426        H432   1.111       .  S
C433        C434   1.398       .  A
C433        C438   1.397       .  A
C433       H1016   1.051       .  S
C434        C599   1.503       .  S
C434        C435   1.401       .  A
C435        C436   1.405       .  A
C435        C442   1.493       .  S
C436        C437   1.411       .  A
C436        H441   1.083       .  S
C437        C438   1.412       .  A
C438        C439   1.506       .  S
C439        H443   1.107       .  S
C439        H444   1.110       .  S
C439        H445   1.110       .  S
H440       C1009   1.051   1_545  S
C442        H447   1.109       .  S
C442        H448   1.102       .  S
C442       H1022   1.093       .  S
H446       C1018   1.093       .  S
C449        C450   1.413       .  A
C449        C454   1.398       .  A
C449        H456   1.075       .  S
C450        C451   1.417       .  A
C451        C452   1.406       .  A
C451        C458   1.510       .  S
C452        C453   1.406       .  A
C452        H457   1.085       .  S
C453        C454   1.399       .  A
C454        C455   1.507       .  S
C455        H459   1.109       .  S
C455        H460   1.110       .  S
C455        H461   1.110       .  S
C458        H462   1.106       .  S
C458        H463   1.108       .  S
C458        H464   1.104       .  S
C465        C466   1.410       .  A
C465        C470   1.399       .  A
C465        H472   1.081       .  S
C466        C467   1.395       .  A
C467        C468   1.395       .  A
C467        C474   1.501       .  S
C468        C469   1.410       .  A
C468        H473   1.081       .  S
C469        C470   1.409       .  A
C470        C471   1.503       .  S
C471        H475   1.109       .  S
C471        H476   1.110       .  S
C471        H477   1.106       .  S
C474        H478   1.110       .  S
C474        H479   1.100       .  S
C474        H480   1.095       .  S
C481        C482   1.408       .  A
C481        C486   1.398       .  A
C481        H488   1.082       .  S
C482        C483   1.399       .  A
C483        C484   1.403       .  A
C483        C490   1.489       .  S
C484        C485   1.407       .  A
C484        H489   1.083       .  S
C485        C486   1.398       .  A
C486        C487   1.501       .  S
C487        H491   1.111       .  S
C487        H492   1.110       .  S
C487        H493   1.097       .  S
C490        H494   1.104       .  S
C490        H495   1.099       .  S
C490        H496   1.102       .  S
C497        C498   1.383       .  A
C497        C502   1.398       .  A
C497        H504   1.085       .  S
C498        C499   1.412       .  A
C499        C500   1.405       .  A
C499        C506   1.502       .  S
C500        C501   1.411       .  A
C500        H505   1.080       .  S
C501        C502   1.440       .  A
C502        C503   1.495       .  S
C503        H507   1.106       .  S
C503        H508   1.103       .  S
C503        H509   1.105       .  S
C506        H512   1.111       .  S
C506       H1662   1.110       .  S
C506       H1663   1.096       .  S
H510       C1658   1.110       .  S
H511       C1658   1.096       .  S
C513        C514   1.381       .  A
C513        C518   1.396       .  A
C513        H520   1.082       .  S
C514        C515   1.416       .  A
C515        C516   1.399       .  A
C515        C522   1.504   1_455  S
C516       C1093   1.397       .  A
C516       H1097   1.081       .  S
C517       C1092   1.397   1_545  A
C517       C1094   1.408       .  A
C518       C1093   1.408       .  A
C518       C1095   1.476       .  S
C519       C1094   1.476       .  S
C519        H524   1.089       .  S
C519        H525   1.098       .  S
C519       H1099   1.104       .  S
H521       C1092   1.081       .  S
C522        H526   1.109       .  S
C522        H527   1.105       .  S
C522        H528   1.100       .  S
H523       C1095   1.104       .  S
C529        C530   1.400       .  A
C529        C534   1.396       .  A
C529        H536   1.061       .  S
C530        C531   1.404       .  A
C531        C532   1.409       .  A
C531        C538   1.504       .  S
C532        C533   1.412       .  A
C532        H537   1.083       .  S
C533        C534   1.399       .  A
C534        C535   1.508       .  S
C535        H539   1.105       .  S
C535        H540   1.111       .  S
C535        H541   1.106       .  S
C538        H542   1.104   1_455  S
C538        H543   1.109       .  S
C538        H544   1.107       .  S
C545        C546   1.401       .  A
C545        C550   1.407       .  A
C545        H552   1.085       .  S
C546        C547   1.422       .  A
C547        C548   1.399       .  A
C547        C554   1.489       .  S
C548        C549   1.395       .  A
C548        H553   1.084       .  S
C549        C550   1.413       .  A
C550        C551   1.476   1_455  S
C551        H555   1.103   1_545  S
C551        H556   1.107       .  S
C551        H557   1.105   1_545  S
C554        H558   1.105       .  S
C554        H559   1.107       .  S
C554        H560   1.100       .  S
C561        C562   1.386       .  A
C561       C1142   1.397       .  A
C561        H568   1.085       .  S
C562        C563   1.414       .  A
C563        C564   1.396       .  A
C563        C570   1.502       .  S
C564       C1141   1.406       .  A
C564        H569   1.083       .  S
C565        C566   1.432       .  A
C565       C1140   1.406   1_545  A
C566       C1137   1.397       .  A
C566        C567   1.494       .  S
C567        H571   1.100       .  S
C567        H572   1.106       .  S
C567        H573   1.101       .  S
C570        H574   1.110       .  S
C570        H575   1.102       .  S
C570        H576   1.105       .  S
C577        C578   1.409       .  D
C577       C1122   1.519       .  S
C577       C1141   1.509       .  S
C578        C740   1.575       .  S
C578        C766   1.552       .  S
C579        C580   1.388       .  D
C579       C1093   1.489       .  S
C579       C1106   1.505       .  S
C580        C695   1.559   1_554  S
C580        C725   1.569   1_554  S
O581       Ni589   1.922   1_455  S
O581        C591   1.284       .  A
O582      Ni1741   1.932       .  S
O582        C592   1.287       .  A
O583      Ni1741   1.872       .  S
O583        C593   1.269       .  A
O584       Ni589   1.871   1_455  S
O584        C594   1.268       .  A
O585       Ni590   1.925       .  S
O585        C594   1.286       .  A
O586       Ni590   1.926   1_655  S
O586       C1745   1.287       .  A
O587       Ni590   1.909   1_655  S
O587       C1744   1.275       .  A
O588       Ni590   1.898       .  S
O588        C591   1.273       .  A
Ni589      O1734   1.932       .  S
Ni589      O1735   1.872       .  S
Ni589      Ni590   2.392   1_655  S
C591       C1138   1.464       .  S
C592       O1739   1.275       .  A
C592       C1074   1.476       .  S
C593       O1738   1.287       .  A
C593       C1058   1.469       .  S
C594       C1090   1.460       .  S
C595        C596   1.408       .  D
C595        C697   1.567   1_554  S
C595        C712   1.561   1_554  S
C596       C1042   1.498       .  S
C596       C1077   1.533       .  S
C597        C598   1.388       .  D
C597       C1026   1.499       .  S
C597       C1061   1.497       .  S
C598        C754   1.560       .  S
C598        C768   1.568       .  S
C599        C600   1.396       .  D
C599        C997   1.516       .  S
C600        C710   1.550   1_554  S
C600        C723   1.564   1_554  S
C601        C602   1.396       .  D
C601        C981   1.506       .  S
C602        C738   1.548       .  S
C602        C752   1.563       .  S
O603      Ni1763   1.895       .  S
O603        C613   1.276       .  A
O604       Ni611   1.905   1_455  S
O604        C614   1.276       .  A
O605       Ni611   1.925   1_455  S
O605        C615   1.284       .  A
O606      Ni1763   1.919       .  S
O606        C616   1.285       .  A
O607       Ni612   1.911       .  S
O607       C1768   1.276   1_455  A
O608       Ni612   1.891       .  S
O608        C615   1.277       .  A
O609       Ni612   1.919       .  S
O609        C614   1.284       .  A
O610       Ni612   1.932   1_655  S
O610       C1765   1.284       .  A
Ni611      O1755   1.895       .  S
Ni611      O1758   1.919       .  S
Ni611      Ni612   2.390   1_655  S
C613       O1762   1.284       .  A
C613        C978   1.470       .  S
C614       C1109   1.470       .  S
C615       C1125   1.494       .  S
C616       O1759   1.276       .  A
C616        C994   1.468       .  S
O617       Ni625   1.909       .  S
O617        C627   1.279       .  A
O618       Ni625   1.909       .  S
O618        C628   1.280       .  A
O619       Ni625   1.915       .  S
O619        C629   1.279       .  A
O620       Ni625   1.907       .  S
O620        C630   1.281       .  A
O621       Ni626   1.901       .  S
O621        C630   1.278       .  A
O622       Ni626   1.906       .  S
O622        C629   1.280       .  A
O623       Ni626   1.894       .  S
O623        C628   1.279       .  A
O624       Ni626   1.899       .  S
O624        C627   1.277       .  A
Ni625      Ni626   2.388       .  S
C627        C965   1.478       .  S
C628       C1045   1.471       .  S
C629       C1029   1.463       .  S
C630       C1013   1.486       .  S
C631        C632   1.399       .  D
C631       C2082   1.500   1_455  S
C631        C946   1.511       .  S
C632        C698   1.555       .  S
C632       C1863   1.569       .  S
C633        C634   1.414       .  D
C633       C1861   1.586       .  S
C633        C724   1.553       .  S
C634        C901   1.540       .  S
C634       C2066   1.506   1_455  S
C635        C636   1.383       .  D
C635        C869   1.473       .  S
C635        C882   1.500       .  S
C636        C696   1.557       .  S
C636        C726   1.546       .  S
C637        C638   1.390       .  D
C637       C1986   1.500   1_455  S
C637        C850   1.500       .  S
C638        C737   1.562       .  S
C638       C1903   1.548       .  S
O639       Ni647   1.904       .  S
O639        C649   1.278       .  A
O640       Ni647   1.917       .  S
O640        C650   1.280       .  A
O641       Ni647   1.921       .  S
O641        C651   1.279       .  A
O642       Ni647   1.913       .  S
O642        C652   1.282       .  A
O643       Ni648   1.915       .  S
O643        C652   1.278       .  A
O644       Ni648   1.901       .  S
O644        C651   1.281       .  A
O645       Ni648   1.931       .  S
O645        C650   1.283       .  A
O646       Ni648   1.932       .  S
O646        C649   1.284       .  A
Ni647      Ni648   2.387       .  S
C650        C949   1.479       .  S
C651        C818   1.497       .  S
C653        C654   1.413       .  D
C653       C1905   1.573       .  S
C653        C767   1.551       .  S
C654       C1954   1.522       .  S
C654        C821   1.516       .  S
C655        C656   1.388       .  D
C655        C739   1.564       .  S
C655        C765   1.568       .  S
C656        C773   1.499       .  S
C656        C786   1.499       .  S
O657       Ni665   1.933       .  S
O657        C667   1.290       .  A
O658       Ni665   1.931       .  S
O658        C668   1.287       .  A
O659       Ni665   1.893       .  S
O659        C669   1.272       .  A
O660       Ni665   1.906       .  S
O660        C670   1.273       .  A
O661       Ni666   1.933       .  S
O661        C670   1.287       .  A
O662       Ni666   1.935       .  S
O662        C669   1.288       .  A
O663       Ni666   1.880       .  S
O663        C668   1.271       .  A
O664       Ni666   1.863       .  S
O664        C667   1.265       .  A
Ni665      Ni666   2.390       .  S
C667        C933   1.466       .  S
C670        C805   1.478       .  S
O671       Ni679   1.912       .  S
O671        C681   1.279       .  A
O672       Ni679   1.903       .  S
O672        C682   1.279       .  A
O673       Ni679   1.908       .  S
O673        C683   1.280       .  A
O674       Ni679   1.908       .  S
O674        C684   1.280       .  A
O675       Ni680   1.903       .  S
O675        C684   1.278       .  A
O676       Ni680   1.921       .  S
O676        C683   1.280       .  A
O677       Ni680   1.907       .  S
O677        C682   1.278       .  A
O678       Ni680   1.905       .  S
O678        C681   1.279       .  A
Ni679      Ni680   2.388       .  S
C681        C917   1.492       .  S
C682        C789   1.458       .  S
C683        C866   1.470       .  S
C684        C837   1.479       .  S
O685       Ni693   1.973       .  S
O685        C695   1.285       .  A
O686       Ni693   1.952       .  S
O686        C696   1.296       .  A
O687       Ni693   1.980       .  S
O687        C697   1.284       .  A
O688       Ni693   1.971       .  S
O688        C698   1.296       .  A
O689       Ni694   1.959       .  S
O689        C698   1.283       .  A
O690       Ni694   1.934   1_554  S
O690        C697   1.286   1_554  A
O691       Ni694   1.958       .  S
O691        C696   1.279       .  A
O692       Ni694   1.947   1_554  S
O692        C695   1.292   1_554  A
Ni693      Ni694   2.353       .  S
O699       Ni707   1.989       .  S
O699        C709   1.290       .  A
O700       Ni707   1.938   1_554  S
O700        C710   1.289   1_554  A
O701       Ni707   1.982       .  S
O701        C711   1.285       .  A
O702       Ni707   1.963   1_554  S
O702        C712   1.289   1_554  A
O703       Ni708   1.971       .  S
O703        C712   1.287       .  A
O704       Ni708   1.964       .  S
O704        C711   1.287       .  A
O705       Ni708   1.960       .  S
O705        C710   1.280       .  A
O706       Ni708   1.993       .  S
O706        C709   1.293       .  A
Ni707      Ni708   2.345       .  S
C709       C1785   1.586       .  S
C711       C1784   1.569       .  S
O713        C723   1.284       .  A
O714       Ni721   1.932       .  S
O714        C724   1.281       .  A
O715        C725   1.283       .  A
O716       Ni721   1.937       .  S
O716        C726   1.290       .  A
O717       Ni722   1.964       .  S
O717        C726   1.283       .  A
O718       Ni722   1.973   1_554  S
O719       Ni722   1.975       .  S
O719        C724   1.283       .  A
O720       Ni722   1.978   1_554  S
Ni721      Ni722   2.352       .  S
O727       Ni735   1.981       .  S
O727        C737   1.289       .  A
O728       Ni735   1.954       .  S
O729       Ni735   1.966       .  S
O729        C739   1.279       .  A
O730       Ni735   1.975       .  S
O731        C740   1.289       .  A
O732       Ni736   1.954       .  S
O732        C739   1.295       .  A
O733        C738   1.278       .  A
O734       Ni736   1.946       .  S
O734        C737   1.288       .  A
Ni735      Ni736   2.348       .  S
O741       Ni749   1.956       .  S
O741        C751   1.293       .  A
O742       Ni749   1.987       .  S
O742        C752   1.292       .  A
O743       Ni749   1.967       .  S
O743        C753   1.288       .  A
O744       Ni749   1.958       .  S
O744        C754   1.278       .  A
O745       Ni750   1.959       .  S
O745        C754   1.297       .  A
O746       Ni750   1.986       .  S
O746        C753   1.292       .  A
O747       Ni750   1.946       .  S
O747        C752   1.287       .  A
O748       Ni750   1.955       .  S
O748        C751   1.278       .  A
Ni749      Ni750   2.351       .  S
C751       C1790   1.548       .  S
C753       C1805   1.573       .  S
O755       Ni763   1.970       .  S
O755        C765   1.283       .  A
O756       Ni763   1.952       .  S
O756        C766   1.283       .  A
O757       Ni763   1.966       .  S
O757        C767   1.282       .  A
O758       Ni763   1.978       .  S
O758        C768   1.294       .  A
O759       Ni764   1.971       .  S
O759        C768   1.284       .  A
O760       Ni764   1.954       .  S
O760        C767   1.285       .  A
O761       Ni764   1.972       .  S
O761        C766   1.283       .  A
O762       Ni764   1.980       .  S
O762        C765   1.296       .  A
Ni763      Ni764   2.342       .  S
C769        C770   1.407       .  A
C769        C774   1.395       .  A
C769        H776   1.074       .  S
C770        C771   1.400       .  A
C771        C772   1.402       .  A
C771        C778   1.491       .  S
C772        C773   1.412       .  A
C772        H777   1.084       .  S
C773        C774   1.398       .  A
C774        C775   1.502       .  S
C775        H779   1.109       .  S
C775        H780   1.111       .  S
C775        H781   1.100       .  S
C778        H782   1.109   1_565  S
C778        H783   1.111       .  S
C778        H784   1.100       .  S
C785        C786   1.412       .  A
C785        C790   1.398       .  A
C785        H792   1.074       .  S
C786        C787   1.418       .  A
C787        C788   1.403       .  A
C787        C794   1.507       .  S
C788        C789   1.404       .  A
C788        H793   1.084       .  S
C789        C790   1.397       .  A
C790        C791   1.507       .  S
C791        H795   1.106       .  S
C791        H796   1.110       .  S
C791        H797   1.110       .  S
C794        H798   1.107       .  S
C794        H799   1.109       .  S
C794        H800   1.107       .  S
C801        C802   1.408       .  A
C801        C806   1.400       .  A
C801        H808   1.081       .  S
C802       C1806   1.522       .  S
C802        C803   1.439       .  A
C803        C804   1.404       .  A
C803       C1962   1.495       .  S
C804        C805   1.388       .  A
C804        H809   1.085       .  S
C805        C806   1.412       .  A
C806        C807   1.498       .  S
C807        H811   1.111       .  S
C807        H812   1.110       .  S
C807        H813   1.090       .  S
C810       C1955   1.495       .  S
C810        H814   1.104       .  S
C810        H815   1.102       .  S
C810        H816   1.102       .  S
C817        C818   1.403       .  A
C817        C822   1.401       .  A
C817        H824   1.084       .  S
C818        C819   1.425       .  A
C819        C820   1.407       .  A
C819        C826   1.488   1_455  S
C820        C821   1.396       .  A
C820        H825   1.086   1_455  S
C821        C822   1.419       .  A
C822        C823   1.492       .  S
C823        H827   1.102       .  S
C823        H828   1.106       .  S
C823        H829   1.108       .  S
C826        H830   1.100       .  S
C826        H831   1.098       .  S
C826        H832   1.091       .  S
C833        C834   1.398       .  A
C833        C838   1.402       .  A
C833        H840   1.085       .  S
C834       C1789   1.500       .  S
C834        C835   1.416       .  A
C835        C836   1.396       .  A
C835       C1994   1.485       .  S
C836        C837   1.392       .  A
C836        H841   1.085       .  S
C837        C838   1.413       .  A
C838        C839   1.489       .  S
C839        H843   1.107       .  S
C839        H844   1.105       .  S
C839        H845   1.106       .  S
C842       C1987   1.485       .  S
C842        H846   1.106   1_655  S
C842        H847   1.109       .  S
C842        H848   1.101       .  S
C849        C850   1.399       .  A
C849        C854   1.402       .  A
C849        H856   1.084       .  S
C850        C851   1.409       .  A
C851        C852   1.395       .  A
C851        C858   1.473       .  S
C852        C853   1.386       .  A
C852        H857   1.085       .  S
C853        C854   1.416       .  A
C854        C855   1.483   1_565  S
C855       H2011   1.111       .  S
C855        H860   1.110       .  S
C855        H861   1.088       .  S
C858        H862   1.108       .  S
C858        H863   1.104       .  S
C858        H864   1.103       .  S
H859       C2007   1.111       .  S
C865        C866   1.394       .  A
C865        C870   1.402       .  A
C865        H872   1.084       .  S
C866        C867   1.413       .  A
C867        C868   1.382       .  A
C867        C874   1.469       .  S
C868        C869   1.376       .  A
C868        H873   1.085       .  S
C869        C870   1.407       .  A
C870        C871   1.480       .  S
C871        H875   1.108       .  S
C871        H876   1.109       .  S
C871        H877   1.102       .  S
C874        H878   1.106       .  S
C874        H879   1.098       .  S
C874        H880   1.107       .  S
C881        C882   1.410       .  A
C881        C886   1.407       .  A
C881        H888   1.066       .  S
C882        C883   1.413       .  A
C883        C884   1.398       .  A
C883        C890   1.508       .  S
C884        C885   1.400       .  A
C884        H889   1.071   1_565  S
C885        C886   1.395       .  A
C886        C887   1.505       .  S
C887        H891   1.105       .  S
C887        H892   1.111       .  S
C887        H893   1.110       .  S
C890        H894   1.105       .  S
C890        H895   1.110   1_565  S
C890        H896   1.108       .  S
C897        C898   1.391       .  A
C897        C902   1.400       .  A
C897        H904   1.085       .  S
C898        C899   1.404       .  A
C899        C900   1.400       .  A
C900        C901   1.420       .  A
C900        H905   1.079       .  S
C901        C902   1.427       .  A
C902        C903   1.490       .  S
C903        H907   1.099       .  S
C903        H908   1.104       .  S
C903        H909   1.104       .  S
C906        H910   1.103       .  S
C906        H911   1.110       .  S
C906        H912   1.111       .  S
C913        C914   1.386       .  A
C913        C918   1.397       .  A
C913        H920   1.036       .  S
C914       C1786   1.506       .  S
C914        C915   1.408       .  A
C915        C916   1.411       .  A
C915        C922   1.497       .  S
C916        C917   1.414       .  A
C916        H921   1.083       .  S
C917        C918   1.420       .  A
C918        C919   1.511       .  S
C919        H923   1.104       .  S
C919        H924   1.111       .  S
C919        H925   1.109       .  S
C922        H926   1.098       .  S
C922        H927   1.110       .  S
C922        H928   1.106       .  S
C929        C930   1.403       .  A
C929        C934   1.405       .  A
C929       H2088   1.083       .  S
C930       C1783   1.500       .  S
C930        C931   1.413       .  A
C931        C932   1.388       .  A
C931        C938   1.465       .  S
C932        C933   1.375       .  A
C932        H937   1.084       .  S
C933        C934   1.424       .  A
C934        C935   1.507       .  S
C935        H939   1.106       .  S
C935        H940   1.109       .  S
C935        H941   1.105       .  S
H936       C2081   1.083       .  S
C938        H942   1.106       .  S
C938        H943   1.098       .  S
C938        H944   1.102       .  S
C945        C946   1.415       .  A
C945        C950   1.398       .  A
C945        H952   1.079       .  S
C946        C947   1.415       .  A
C947        C948   1.411       .  A
C947        C954   1.508       .  S
C948        C949   1.408       .  A
C948        H953   1.080       .  S
C949        C950   1.401       .  A
C950        C951   1.508       .  S
C951        H955   1.111       .  S
C951        H956   1.111       .  S
C951        H957   1.110       .  S
C954        H958   1.105       .  S
C954        H959   1.110       .  S
C954        H960   1.103       .  S
C961        C962   1.398   1_565  A
C961        C966   1.403       .  A
C961        H968   1.085   1_565  S
C963        C970   1.489       .  S
C964        C965   1.390       .  A
C964        H969   1.085       .  S
C965        C966   1.413       .  A
C966        C967   1.495       .  S
C967        H971   1.100       .  S
C967        H972   1.094       .  S
C967        H973   1.097       .  S
C970        H974   1.105       .  S
C970        H975   1.109       .  S
C970        H976   1.100       .  S
C977        C978   1.386       .  A
C977        C982   1.391       .  A
C977        H984   1.086       .  S
C978        C979   1.420       .  A
C979        C980   1.409       .  A
C979        C986   1.496       .  S
C980        C981   1.405       .  A
C980        H985   1.084       .  S
C981        C982   1.410       .  A
C982        C983   1.477       .  S
C983        H987   1.101       .  S
C983        H988   1.106       .  S
C983        H989   1.105       .  S
C986       H2142   1.104       .  S
C986        H991   1.106       .  S
C986        H992   1.110       .  S
H990       C2138   1.104       .  S
C993        C994   1.387       .  A
C993        C998   1.396       .  A
C993       H1000   1.084       .  S
C994        C995   1.413       .  A
C995        C996   1.407       .  A
C995       C2154   1.503       .  S
C996        C997   1.407       .  A
C996       H1001   1.080       .  S
C997        C998   1.399       .  A
C998        C999   1.467       .  S
C999       H1003   1.094       .  S
C999       H1004   1.104       .  S
C999       H1005   1.099       .  S
C1002      C2147   1.503   1_455  S
C1002      H1006   1.100       .  S
C1002      H1007   1.110       .  S
C1002      H1008   1.111       .  S
C1009      C1010   1.398   1_565  A
C1009      C1014   1.397       .  A
C1010      C1011   1.401   1_545  A
C1011      C1012   1.405       .  A
C1011      C1018   1.493   1_565  S
C1012      C1013   1.411       .  A
C1012      H1017   1.083       .  S
C1013      C1014   1.412       .  A
C1014      C1015   1.506       .  S
C1015      H1019   1.107       .  S
C1015      H1020   1.110       .  S
C1015      H1021   1.110       .  S
C1018      H1023   1.109   1_545  S
C1018      H1024   1.102   1_545  S
C1025      C1026   1.413       .  A
C1025      C1030   1.398       .  A
C1025      H1032   1.075       .  S
C1026      C1027   1.417       .  A
C1027      C1028   1.406       .  A
C1027      C1034   1.510       .  S
C1028      C1029   1.406       .  A
C1028      H1033   1.085       .  S
C1029      C1030   1.399       .  A
C1030      C1031   1.507       .  S
C1031      H1035   1.109       .  S
C1031      H1036   1.110       .  S
C1031      H1037   1.110       .  S
C1034      H1038   1.106       .  S
C1034      H1039   1.108       .  S
C1034      H1040   1.104       .  S
C1041      C1042   1.410       .  A
C1041      C1046   1.399       .  A
C1041      H1048   1.081       .  S
C1042      C1043   1.395       .  A
C1043      C1044   1.395       .  A
C1043      C1050   1.501       .  S
C1044      C1045   1.410       .  A
C1044      H1049   1.081       .  S
C1045      C1046   1.409       .  A
C1046      C1047   1.503       .  S
C1047      H1051   1.109       .  S
C1047      H1052   1.110       .  S
C1047      H1053   1.106       .  S
C1050      H1054   1.110       .  S
C1050      H1055   1.100       .  S
C1050      H1056   1.095       .  S
C1057      C1058   1.408       .  A
C1057      C1062   1.398       .  A
C1057      H1064   1.082       .  S
C1058      C1059   1.399       .  A
C1059      C1060   1.403       .  A
C1059      C1066   1.489       .  S
C1060      C1061   1.407       .  A
C1060      H1065   1.083       .  S
C1061      C1062   1.398       .  A
C1062      C1063   1.501       .  S
C1063      H1067   1.111       .  S
C1063      H1068   1.110       .  S
C1063      H1069   1.097       .  S
C1066      H1070   1.104       .  S
C1066      H1071   1.099       .  S
C1066      H1072   1.102       .  S
C1073      C1074   1.383       .  A
C1073      C1078   1.398       .  A
C1073      H1080   1.085       .  S
C1074      C1075   1.412       .  A
C1075      C1076   1.405       .  A
C1075      C1082   1.502       .  S
C1076      C1077   1.411       .  A
C1076      H1081   1.080       .  S
C1077      C1078   1.440       .  A
C1078      C1079   1.495       .  S
C1079      H1083   1.106       .  S
C1079      H1084   1.103       .  S
C1079      H1085   1.105       .  S
C1082      H2238   1.110       .  S
C1082      H2239   1.096       .  S
C1082      H1088   1.111       .  S
H1086      C2234   1.110       .  S
H1087      C2234   1.096       .  S
C1089      C1090   1.381       .  A
C1089      C1094   1.396   1_565  A
C1089      H1096   1.082       .  S
C1090      C1091   1.416       .  A
C1091      C1092   1.399       .  A
C1091      C1098   1.504   1_455  S
C1095      H1100   1.089       .  S
C1095      H1101   1.098       .  S
C1098      H1102   1.109       .  S
C1098      H1103   1.105       .  S
C1098      H1104   1.100       .  S
C1105      C1106   1.400       .  A
C1105      C1110   1.396       .  A
C1105      H1112   1.061       .  S
C1106      C1107   1.404       .  A
C1107      C1108   1.409       .  A
C1107      C1114   1.504       .  S
C1108      C1109   1.412       .  A
C1108      H1113   1.083       .  S
C1109      C1110   1.399       .  A
C1110      C1111   1.508       .  S
C1111      H1115   1.105       .  S
C1111      H1116   1.111       .  S
C1111      H1117   1.106       .  S
C1114      H1118   1.104   1_455  S
C1114      H1119   1.109       .  S
C1114      H1120   1.107       .  S
C1121      C1122   1.401       .  A
C1121      C1126   1.407       .  A
C1121      H1128   1.085       .  S
C1122      C1123   1.422       .  A
C1123      C1124   1.399       .  A
C1123      C1130   1.489       .  S
C1124      C1125   1.395       .  A
C1124      H1129   1.084       .  S
C1125      C1126   1.413       .  A
C1126      C1127   1.476   1_455  S
C1127      H1131   1.103       .  S
C1127      H1132   1.107       .  S
C1127      H1133   1.105       .  S
C1130      H1134   1.105       .  S
C1130      H1135   1.107       .  S
C1130      H1136   1.100       .  S
C1137      C1138   1.386   1_545  A
C1137      H1144   1.085       .  S
C1138      C1139   1.414       .  A
C1139      C1140   1.396       .  A
C1139      C1146   1.502       .  S
C1140      H1145   1.083       .  S
C1141      C1142   1.432       .  A
C1142      C1143   1.494       .  S
C1143      H1147   1.100       .  S
C1143      H1148   1.106       .  S
C1143      H1149   1.101       .  S
C1146      H1150   1.110       .  S
C1146      H1151   1.102       .  S
C1146      H1152   1.105       .  S
C1153      C1154   1.409       .  D
C1153      C1698   1.519       .  S
C1153      C1717   1.509       .  S
C1154      C1316   1.575       .  S
C1154      C1342   1.552       .  S
C1155      C1156   1.388       .  D
C1155      C1669   1.489       .  S
C1155      C1682   1.505       .  S
C1156      C1271   1.559   1_554  S
C1156      C1301   1.569   1_554  S
O1157     Ni1165   1.922       .  S
O1157      C1167   1.284       .  A
O1158      C1168   1.287       .  A
O1159      C1169   1.269       .  A
O1160     Ni1165   1.871       .  S
O1160      C1170   1.268       .  A
O1161     Ni1166   1.925       .  S
O1161      C1170   1.286       .  A
O1162     Ni1166   1.926       .  S
O1163     Ni1166   1.909       .  S
O1164     Ni1166   1.898       .  S
O1164      C1167   1.273       .  A
Ni1165    Ni1166   2.392       .  S
C1167      C1714   1.464       .  S
C1168      C1650   1.476       .  S
C1169      C1634   1.469       .  S
C1170      C1666   1.460       .  S
C1171      C1172   1.408       .  D
C1171      C1273   1.567   1_554  S
C1171      C1288   1.561   1_554  S
C1172      C1618   1.498       .  S
C1172      C1653   1.533       .  S
C1173      C1174   1.388       .  D
C1173      C1602   1.499       .  S
C1173      C1637   1.497       .  S
C1174      C1330   1.560       .  S
C1174      C1344   1.568       .  S
C1175      C1176   1.396       .  D
C1175      C1573   1.516       .  S
C1175      C2162   1.503       .  S
C1176      C1286   1.550   1_554  S
C1176      C1299   1.564   1_554  S
C1177      C1178   1.396       .  D
C1177      C2114   1.507       .  S
C1177      C1557   1.506       .  S
C1178      C1314   1.548       .  S
C1178      C1328   1.563       .  S
O1179      C1189   1.276       .  A
O1180     Ni1187   1.905       .  S
O1180      C1190   1.276       .  A
O1181     Ni1187   1.925       .  S
O1181      C1191   1.284       .  A
O1182      C1192   1.285       .  A
O1183     Ni1188   1.911       .  S
O1184     Ni1188   1.891       .  S
O1184      C1191   1.277       .  A
O1185     Ni1188   1.919       .  S
O1185      C1190   1.284       .  A
O1186     Ni1188   1.932       .  S
Ni1187    Ni1188   2.390       .  S
C1189      C1554   1.470       .  S
C1190      C1685   1.470       .  S
C1191      C1701   1.494       .  S
C1192      C1570   1.468       .  S
O1193     Ni1201   1.909       .  S
O1193      C1203   1.279       .  A
O1194     Ni1201   1.909       .  S
O1194      C1204   1.280       .  A
O1195     Ni1201   1.915       .  S
O1195      C1205   1.279       .  A
O1196     Ni1201   1.907       .  S
O1196      C1206   1.281       .  A
O1197     Ni1202   1.901       .  S
O1197      C1206   1.278       .  A
O1198     Ni1202   1.906       .  S
O1198      C1205   1.280       .  A
O1199     Ni1202   1.894       .  S
O1199      C1204   1.279       .  A
O1200     Ni1202   1.899       .  S
O1200      C1203   1.277       .  A
Ni1201    Ni1202   2.388       .  S
C1203      C1541   1.478       .  S
C1204      C1621   1.471       .  S
C1205      C1605   1.463       .  S
C1206      C1589   1.486       .  S
C1207      C1208   1.399       .  D
C1207      C1522   1.511       .  S
C1208      C1274   1.555       .  S
C1209      C1210   1.414       .  D
C1209      C1300   1.553       .  S
C1210      C1477   1.540       .  S
C1211      C1212   1.383       .  D
C1211      C1445   1.473       .  S
C1211      C1458   1.500       .  S
C1212      C1272   1.557       .  S
C1212      C1302   1.546       .  S
C1213      C1214   1.390       .  D
C1213      C1426   1.500       .  S
C1214      C1313   1.562       .  S
O1215     Ni1223   1.904   1_565  S
O1215      C1225   1.278       .  A
O1216     Ni1223   1.917       .  S
O1216      C1226   1.280       .  A
O1217     Ni1223   1.921       .  S
O1217      C1227   1.279       .  A
O1218     Ni1223   1.913   1_565  S
O1218      C1228   1.282       .  A
O1219     Ni1224   1.915       .  S
O1219      C1228   1.278   1_545  A
O1220     Ni1224   1.901       .  S
O1220      C1227   1.281       .  A
O1221     Ni1224   1.931       .  S
O1221      C1226   1.283       .  A
O1222     Ni1224   1.932       .  S
O1222      C1225   1.284   1_545  A
Ni1223    Ni1224   2.387       .  S
C1225      C2005   1.471       .  S
C1226      C1525   1.479       .  S
C1227      C1394   1.497       .  S
C1228      C2050   1.469       .  S
C1229      C1230   1.413       .  D
C1229      C1343   1.551       .  S
C1230      C1397   1.516       .  S
C1231      C1232   1.388       .  D
C1231      C1315   1.564       .  S
C1231      C1341   1.568       .  S
C1232      C1349   1.499       .  S
C1232      C1362   1.499       .  S
O1233     Ni1241   1.933       .  S
O1233      C1243   1.290       .  A
O1234     Ni1241   1.931       .  S
O1234      C1244   1.287   1_545  A
O1235     Ni1241   1.893       .  S
O1235      C1245   1.272   1_545  A
O1236     Ni1241   1.906       .  S
O1236      C1246   1.273       .  A
O1237     Ni1242   1.933       .  S
O1237      C1246   1.287       .  A
O1238     Ni1242   1.935   1_565  S
O1238      C1245   1.288       .  A
O1239     Ni1242   1.880   1_565  S
O1239      C1244   1.271       .  A
O1240     Ni1242   1.863       .  S
O1240      C1243   1.265       .  A
Ni1241    Ni1242   2.390       .  S
C1243      C1509   1.466       .  S
C1244      C1922   1.476       .  S
C1245      C2037   1.470       .  S
C1246      C1381   1.478       .  S
O1247     Ni1255   1.912       .  S
O1247      C1257   1.279       .  A
O1248     Ni1255   1.903       .  S
O1248      C1258   1.279       .  A
O1249     Ni1255   1.908       .  S
O1249      C1259   1.280       .  A
O1250     Ni1255   1.908       .  S
O1250      C1260   1.280       .  A
O1251     Ni1256   1.903       .  S
O1251      C1260   1.278       .  A
O1252     Ni1256   1.921       .  S
O1252      C1259   1.280       .  A
O1253     Ni1256   1.907       .  S
O1253      C1258   1.278       .  A
O1254     Ni1256   1.905       .  S
O1254      C1257   1.279       .  A
Ni1255    Ni1256   2.388       .  S
C1257      C1493   1.492       .  S
C1258      C1365   1.458       .  S
C1259      C1442   1.470       .  S
C1260      C1413   1.479       .  S
O1261     Ni1269   1.973       .  S
O1261      C1271   1.285       .  A
O1262     Ni1269   1.952       .  S
O1262      C1272   1.296       .  A
O1263     Ni1269   1.980       .  S
O1263      C1273   1.284       .  A
O1264     Ni1269   1.971       .  S
O1264      C1274   1.296       .  A
O1265     Ni1270   1.959       .  S
O1265      C1274   1.283       .  A
O1266     Ni1270   1.934   1_554  S
O1266      C1273   1.286   1_554  A
O1267     Ni1270   1.958       .  S
O1267      C1272   1.279       .  A
O1268     Ni1270   1.947   1_554  S
O1268      C1271   1.292   1_554  A
Ni1269    Ni1270   2.353       .  S
O1275     Ni1283   1.989   1_455  S
O1275      C1285   1.290       .  A
O1276     Ni1283   1.938   1_554  S
O1276      C1286   1.289   1_554  A
O1277     Ni1283   1.982   1_455  S
O1277      C1287   1.285       .  A
O1278     Ni1283   1.963   1_554  S
O1278      C1288   1.289   1_554  A
O1279     Ni1284   1.971       .  S
O1279      C1288   1.287       .  A
O1280     Ni1284   1.964       .  S
O1280      C1287   1.287   1_655  A
O1281     Ni1284   1.960       .  S
O1281      C1286   1.280       .  A
O1282     Ni1284   1.993       .  S
O1282      C1285   1.293   1_655  A
Ni1283    Ni1284   2.345       .  S
O1289     Ni1873   1.966   1_545  S
O1289      C1299   1.284       .  A
O1290     Ni1297   1.932       .  S
O1290      C1300   1.281       .  A
O1291     Ni1873   1.972   1_545  S
O1291      C1301   1.283       .  A
O1292     Ni1297   1.937       .  S
O1292      C1302   1.290       .  A
O1293     Ni1298   1.964       .  S
O1293      C1302   1.283       .  A
O1294     Ni1298   1.973   1_554  S
O1294      C1877   1.298   1_554  A
O1295     Ni1298   1.975       .  S
O1295      C1300   1.283       .  A
O1296     Ni1298   1.978   1_554  S
O1296      C1875   1.293   1_554  A
Ni1297     O1865   1.966       .  S
Ni1297     O1867   1.972       .  S
Ni1297    Ni1298   2.352       .  S
C1299      O1872   1.293   1_546  A
C1301      O1870   1.298   1_546  A
O1303     Ni1311   1.981       .  S
O1303      C1313   1.289       .  A
O1304     Ni1311   1.954       .  S
O1304      C1890   1.291       .  A
O1305     Ni1311   1.966       .  S
O1305      C1315   1.279       .  A
O1306     Ni1311   1.975       .  S
O1306      C1892   1.291       .  A
O1307     Ni1888   1.984   1_545  S
O1307      C1316   1.289       .  A
O1308     Ni1312   1.954       .  S
O1308      C1315   1.295       .  A
O1309     Ni1888   1.955   1_545  S
O1309      C1314   1.278       .  A
O1310     Ni1312   1.946       .  S
O1310      C1313   1.288       .  A
Ni1311    Ni1312   2.348       .  S
Ni1312     O1883   1.984       .  S
Ni1312     O1885   1.955       .  S
C1314      O1880   1.291   1_545  A
C1316      O1882   1.291   1_545  A
O1317     Ni1325   1.956       .  S
O1317      C1327   1.293   1_655  A
O1318     Ni1325   1.987       .  S
O1318      C1328   1.292       .  A
O1319     Ni1325   1.967       .  S
O1319      C1329   1.288   1_655  A
O1320     Ni1325   1.958       .  S
O1320      C1330   1.278       .  A
O1321     Ni1326   1.959       .  S
O1321      C1330   1.297       .  A
O1322     Ni1326   1.986   1_455  S
O1322      C1329   1.292       .  A
O1323     Ni1326   1.946       .  S
O1323      C1328   1.287       .  A
O1324     Ni1326   1.955   1_455  S
O1324      C1327   1.278       .  A
Ni1325    Ni1326   2.351       .  S
O1331     Ni1339   1.970       .  S
O1331      C1341   1.283       .  A
O1332     Ni1339   1.952       .  S
O1332      C1342   1.283       .  A
O1333     Ni1339   1.966       .  S
O1333      C1343   1.282       .  A
O1334     Ni1339   1.978       .  S
O1334      C1344   1.294       .  A
O1335     Ni1340   1.971       .  S
O1335      C1344   1.284       .  A
O1336     Ni1340   1.954       .  S
O1336      C1343   1.285       .  A
O1337     Ni1340   1.972       .  S
O1337      C1342   1.283       .  A
O1338     Ni1340   1.980       .  S
O1338      C1341   1.296       .  A
Ni1339    Ni1340   2.342       .  S
C1345      C1346   1.407       .  A
C1345      C1350   1.395       .  A
C1345      H1352   1.074       .  S
C1346      C1820   1.476       .  S
C1346      C1347   1.400       .  A
C1347      C1348   1.402       .  A
C1347      C1354   1.491       .  S
C1348      C1349   1.412       .  A
C1348      H1353   1.084       .  S
C1349      C1350   1.398       .  A
C1350      C1351   1.502       .  S
C1351      H1355   1.109       .  S
C1351      H1356   1.111       .  S
C1351      H1357   1.100       .  S
C1354      H1358   1.109       .  S
C1354      H1359   1.110       .  S
C1354      H1360   1.100       .  S
C1361      C1362   1.412       .  A
C1361      C1366   1.398       .  A
C1361      H1368   1.074       .  S
C1362      C1363   1.418       .  A
C1363      C1364   1.403       .  A
C1363      C1370   1.507       .  S
C1364      C1365   1.404       .  A
C1364      H1369   1.084       .  S
C1365      C1366   1.397       .  A
C1366      C1367   1.507       .  S
C1367      H1371   1.106       .  S
C1367      H1372   1.110       .  S
C1367      H1373   1.110       .  S
C1370      H1374   1.107       .  S
C1370      H1375   1.109       .  S
C1370      H1376   1.107       .  S
C1377      C1378   1.408   1_655  A
C1377      C1382   1.400       .  A
C1377      H1384   1.081       .  S
C1378      C1379   1.438       .  A
C1379      C1380   1.404   1_455  A
C1380      C1381   1.388       .  A
C1380      H1385   1.085   1_655  S
C1381      C1382   1.412       .  A
C1382      C1383   1.498       .  S
C1383      H1387   1.111       .  S
C1383      H1388   1.110       .  S
C1383      H1389   1.090       .  S
C1386      H1390   1.104       .  S
C1386      H1391   1.102       .  S
C1386      H1392   1.102       .  S
C1393      C1394   1.403       .  A
C1393      C1398   1.401       .  A
C1393      H1400   1.084       .  S
C1394      C1395   1.425       .  A
C1395      C1396   1.407       .  A
C1395      C1402   1.488       .  S
C1396      C1397   1.396       .  A
C1396      H1401   1.086       .  S
C1397      C1398   1.419       .  A
C1398      C1399   1.492       .  S
C1399      H1403   1.102       .  S
C1399      H1404   1.106       .  S
C1399      H1405   1.108       .  S
C1402      H1406   1.100       .  S
C1402      H1407   1.098       .  S
C1402      H1408   1.091       .  S
C1409      C1410   1.398       .  A
C1409      C1414   1.402       .  A
C1409      H1416   1.085       .  S
C1410      C1411   1.416       .  A
C1411      C1412   1.396       .  A
C1412      C1413   1.392       .  A
C1412      H1417   1.085       .  S
C1413      C1414   1.413       .  A
C1414      C1415   1.489       .  S
C1415      H1419   1.107       .  S
C1415      H1420   1.105       .  S
C1415      H1421   1.106       .  S
C1418      H1422   1.106       .  S
C1418      H1423   1.109       .  S
C1418      H1424   1.101       .  S
C1425      C1426   1.399       .  A
C1425      C1430   1.402       .  A
C1425      H1432   1.084       .  S
C1426      C1427   1.409       .  A
C1427      C1428   1.395       .  A
C1427      C1434   1.473       .  S
C1428      C1429   1.386       .  A
C1428      H1433   1.085       .  S
C1429      C1801   1.471       .  S
C1429      C1430   1.416       .  A
C1430      C1431   1.483       .  S
C1431      H1436   1.110       .  S
C1431      H1437   1.088       .  S
C1434      H1438   1.108       .  S
C1434      H1439   1.104       .  S
C1434      H1440   1.103       .  S
C1441      C1442   1.394       .  A
C1441      C1446   1.402       .  A
C1441      H1448   1.084       .  S
C1442      C1443   1.413       .  A
C1443      C1444   1.382       .  A
C1443      C1450   1.469       .  S
C1444      C1445   1.376       .  A
C1444      H1449   1.085       .  S
C1445      C1446   1.407       .  A
C1446      C1447   1.480       .  S
C1447      H1451   1.108       .  S
C1447      H1452   1.109       .  S
C1447      H1453   1.102       .  S
C1450      H1454   1.106       .  S
C1450      H1455   1.098       .  S
C1450      H1456   1.107       .  S
C1457      C1458   1.410       .  A
C1457      C1462   1.407       .  A
C1457      H1464   1.066       .  S
C1458      C1459   1.413       .  A
C1459      C1460   1.398       .  A
C1459      C1466   1.508       .  S
C1460      C1461   1.400       .  A
C1460      H1465   1.071       .  S
C1461      C1821   1.470       .  S
C1461      C1462   1.395       .  A
C1462      C1463   1.505       .  S
C1463      H1467   1.105       .  S
C1463      H1468   1.111       .  S
C1463      H1469   1.110       .  S
C1466      H1470   1.105       .  S
C1466      H1471   1.110       .  S
C1466      H1472   1.108       .  S
C1473      C1474   1.391       .  A
C1473      C1478   1.400       .  A
C1473      H1480   1.085       .  S
C1474      C1804   1.469       .  S
C1474      C1475   1.404       .  A
C1475      C1476   1.400       .  A
C1475      C2058   1.507       .  S
C1476      C1477   1.420       .  A
C1476      H1481   1.079       .  S
C1477      C1478   1.427       .  A
C1478      C1479   1.490       .  S
C1479      H1483   1.099       .  S
C1479      H1484   1.104       .  S
C1479      H1485   1.104       .  S
C1482      C2051   1.507   1_545  S
C1482      H1486   1.103       .  S
C1482      H1487   1.110       .  S
C1482      H1488   1.111       .  S
C1489      C1490   1.386       .  A
C1489      C1494   1.397       .  A
C1489      H1496   1.036       .  S
C1490      C1491   1.408       .  A
C1491      C1492   1.411       .  A
C1491      C1498   1.497   1_655  S
C1492      C1493   1.414       .  A
C1492      H1497   1.083       .  S
C1493      C1494   1.420       .  A
C1494      C1495   1.511       .  S
C1495      H1499   1.104       .  S
C1495      H1500   1.111       .  S
C1495      H1501   1.109       .  S
C1498      H1502   1.098       .  S
C1498      H1503   1.110   1_455  S
C1498      H1504   1.106   1_455  S
C1505      C1506   1.403       .  A
C1505      C1510   1.405       .  A
C1506      C1507   1.413       .  A
C1507      C1508   1.388       .  A
C1507      C1514   1.465       .  S
C1508      C1509   1.375       .  A
C1508      H1513   1.084       .  S
C1509      C1510   1.424       .  A
C1510      C1511   1.507       .  S
C1511      H1515   1.106   1_545  S
C1511      H1516   1.109       .  S
C1511      H1517   1.105   1_545  S
C1514      H1518   1.106   1_655  S
C1514      H1519   1.098       .  S
C1514      H1520   1.102       .  S
C1521      C1522   1.415       .  A
C1521      C1526   1.398       .  A
C1521      H1528   1.079       .  S
C1522      C1523   1.415       .  A
C1523      C1524   1.411       .  A
C1523      C1530   1.508       .  S
C1524      C1525   1.408       .  A
C1524      H1529   1.080       .  S
C1525      C1526   1.401       .  A
C1526      C1527   1.508       .  S
C1527      H1531   1.111       .  S
C1527      H1532   1.111       .  S
C1527      H1533   1.110       .  S
C1530      H1534   1.105       .  S
C1530      H1535   1.110       .  S
C1530      H1536   1.103       .  S
C1537      C1538   1.398       .  A
C1537      C1542   1.403       .  A
C1537      H1544   1.085       .  S
C1538      C1753   1.507       .  S
C1538      C2115   1.423       .  A
C1539      C2114   1.423   1_565  A
C1539      C2116   1.398       .  A
C1539      C1546   1.489   1_565  S
C1540      C2115   1.398       .  A
C1540      C1541   1.390       .  A
C1540      H1545   1.085       .  S
C1541      C1542   1.413       .  A
C1542      C1543   1.495       .  S
C1543      H1547   1.100       .  S
C1543      H1548   1.094       .  S
C1543      H1549   1.097       .  S
C1546      H1550   1.105       .  S
C1546      H1551   1.109   1_545  S
C1546      H1552   1.100       .  S
C1553      C1554   1.386       .  A
C1553      C1558   1.391       .  A
C1553      H1560   1.086       .  S
C1554      C1555   1.420       .  A
C1555      C1556   1.409       .  A
C1555      C1562   1.496   1_655  S
C1556      C1557   1.405       .  A
C1556      H1561   1.084       .  S
C1557      C1558   1.410       .  A
C1558      C1559   1.477       .  S
C1559      H1563   1.101       .  S
C1559      H1564   1.106       .  S
C1559      H1565   1.105       .  S
C1562      H1567   1.106       .  S
C1562      H1568   1.110       .  S
C1569      C1570   1.387       .  A
C1569      C1574   1.396       .  A
C1569      H1576   1.084       .  S
C1570      C1571   1.413       .  A
C1571      C1572   1.407       .  A
C1572      C1573   1.407       .  A
C1572      H1577   1.080       .  S
C1573      C1574   1.399       .  A
C1574      C1575   1.467       .  S
C1575      H1579   1.094       .  S
C1575      H1580   1.104       .  S
C1575      H1581   1.099       .  S
C1578      H1582   1.100       .  S
C1578      H1583   1.110       .  S
C1578      H1584   1.111       .  S
C1585      C1586   1.398       .  A
C1585      C1590   1.397       .  A
C1585      H2168   1.051       .  S
C1586      C1751   1.503       .  S
C1586      C1587   1.401       .  A
C1587      C1588   1.405       .  A
C1587      C1594   1.493       .  S
C1588      C1589   1.411       .  A
C1588      H1593   1.083       .  S
C1589      C1590   1.412       .  A
C1590      C1591   1.506       .  S
C1591      H1595   1.107       .  S
C1591      H1596   1.110       .  S
C1591      H1597   1.110       .  S
H1592      C2161   1.051   1_545  S
C1594      H2174   1.093       .  S
C1594      H1599   1.109       .  S
C1594      H1600   1.102       .  S
H1598      C2170   1.093       .  S
C1601      C1602   1.413       .  A
C1601      C1606   1.398       .  A
C1601      H1608   1.075       .  S
C1602      C1603   1.417       .  A
C1603      C1604   1.406       .  A
C1603      C1610   1.510       .  S
C1604      C1605   1.406       .  A
C1604      H1609   1.085       .  S
C1605      C1606   1.399       .  A
C1606      C1607   1.507       .  S
C1607      H1611   1.109       .  S
C1607      H1612   1.110       .  S
C1607      H1613   1.110       .  S
C1610      H1614   1.106       .  S
C1610      H1615   1.108       .  S
C1610      H1616   1.104       .  S
C1617      C1618   1.410       .  A
C1617      C1622   1.399       .  A
C1617      H1624   1.081       .  S
C1618      C1619   1.395       .  A
C1619      C1620   1.395       .  A
C1619      C1626   1.501       .  S
C1620      C1621   1.410       .  A
C1620      H1625   1.081       .  S
C1621      C1622   1.409       .  A
C1622      C1623   1.503       .  S
C1623      H1627   1.109       .  S
C1623      H1628   1.110       .  S
C1623      H1629   1.106       .  S
C1626      H1630   1.110       .  S
C1626      H1631   1.100       .  S
C1626      H1632   1.095       .  S
C1633      C1634   1.408       .  A
C1633      C1638   1.398       .  A
C1633      H1640   1.082       .  S
C1634      C1635   1.399       .  A
C1635      C1636   1.403       .  A
C1635      C1642   1.489       .  S
C1636      C1637   1.407       .  A
C1636      H1641   1.083       .  S
C1637      C1638   1.398       .  A
C1638      C1639   1.501       .  S
C1639      H1643   1.111       .  S
C1639      H1644   1.110       .  S
C1639      H1645   1.097       .  S
C1642      H1646   1.104       .  S
C1642      H1647   1.099       .  S
C1642      H1648   1.102       .  S
C1649      C1650   1.383       .  A
C1649      C1654   1.398       .  A
C1649      H1656   1.085       .  S
C1650      C1651   1.412       .  A
C1651      C1652   1.405       .  A
C1651      C1658   1.502   1_655  S
C1652      C1653   1.411       .  A
C1652      H1657   1.080       .  S
C1653      C1654   1.440       .  A
C1654      C1655   1.495       .  S
C1655      H1659   1.106       .  S
C1655      H1660   1.103       .  S
C1655      H1661   1.105       .  S
C1658      H1664   1.111       .  S
C1665      C1666   1.381       .  A
C1665      C1670   1.396       .  A
C1665      H1672   1.082       .  S
C1666      C1667   1.416       .  A
C1667      C1668   1.399       .  A
C1667      C1674   1.504       .  S
C1668      C2245   1.397       .  A
C1668      H2249   1.081       .  S
C1669      C2244   1.397   1_545  A
C1669      C2246   1.408       .  A
C1670      C2245   1.408       .  A
C1670      C2247   1.476       .  S
C1671      C2246   1.476       .  S
C1671      H2251   1.104       .  S
C1671      H1676   1.089       .  S
C1671      H1677   1.098       .  S
H1673      C2244   1.081       .  S
C1674      H1678   1.109       .  S
C1674      H1679   1.105       .  S
C1674      H1680   1.100       .  S
H1675      C2247   1.104       .  S
C1681      C1682   1.400       .  A
C1681      C1686   1.396       .  A
C1681      H1688   1.061       .  S
C1682      C1683   1.404       .  A
C1683      C1684   1.409       .  A
C1683      C1690   1.504       .  S
C1684      C1685   1.412       .  A
C1684      H1689   1.083       .  S
C1685      C1686   1.399       .  A
C1686      C1687   1.508       .  S
C1687      H1691   1.105       .  S
C1687      H1692   1.111       .  S
C1687      H1693   1.106       .  S
C1690      H1694   1.104       .  S
C1690      H1695   1.109       .  S
C1690      H1696   1.107       .  S
C1697      C1698   1.401       .  A
C1697      C1702   1.407       .  A
C1697      H1704   1.085       .  S
C1698      C1699   1.422       .  A
C1699      C1700   1.399       .  A
C1699      C1706   1.489       .  S
C1700      C1701   1.395       .  A
C1700      H1705   1.084       .  S
C1701      C1702   1.413       .  A
C1702      C1703   1.476       .  S
C1703      H1707   1.103   1_545  S
C1703      H1708   1.107       .  S
C1703      H1709   1.105   1_545  S
C1706      H1710   1.105       .  S
C1706      H1711   1.107       .  S
C1706      H1712   1.100       .  S
C1713      C1714   1.386       .  A
C1713      C2294   1.397       .  A
C1713      H1720   1.085       .  S
C1714      C1715   1.414       .  A
C1715      C1716   1.396       .  A
C1715      C1722   1.502       .  S
C1716      C2293   1.406       .  A
C1716      H1721   1.083       .  S
C1717      C2292   1.406   1_545  A
C1717      C1718   1.432       .  A
C1718      C2289   1.397       .  A
C1718      C1719   1.494       .  S
C1719      H1723   1.100       .  S
C1719      H1724   1.106       .  S
C1719      H1725   1.101       .  S
C1722      H1726   1.110       .  S
C1722      H1727   1.102       .  S
C1722      H1728   1.105       .  S
C1729      C1730   1.409       .  D
C1729      C2274   1.519       .  S
C1729      C2293   1.509       .  S
C1730      C1892   1.575       .  S
C1730      C1918   1.552       .  S
C1731      C1732   1.388       .  D
C1731      C2245   1.489       .  S
C1731      C2258   1.505       .  S
C1732      C1847   1.559   1_554  S
C1732      C1877   1.569   1_554  S
O1733     Ni1741   1.922       .  S
O1733      C1743   1.284       .  A
O1734      C1744   1.287       .  A
O1735      C1745   1.269       .  A
O1736     Ni1741   1.871       .  S
O1736      C1746   1.268       .  A
O1737     Ni1742   1.925       .  S
O1737      C1746   1.286       .  A
O1738     Ni1742   1.926       .  S
O1739     Ni1742   1.909       .  S
O1740     Ni1742   1.898       .  S
O1740      C1743   1.273       .  A
Ni1741    Ni1742   2.392       .  S
C1743      C2290   1.464       .  S
C1744      C2226   1.476       .  S
C1745      C2210   1.469       .  S
C1746      C2242   1.460       .  S
C1747      C1748   1.408       .  D
C1747      C1849   1.567   1_554  S
C1747      C1864   1.561   1_554  S
C1748      C2194   1.498       .  S
C1748      C2229   1.533       .  S
C1749      C1750   1.388       .  D
C1749      C2178   1.499       .  S
C1749      C2213   1.497       .  S
C1750      C1906   1.560       .  S
C1750      C1920   1.568       .  S
C1751      C1752   1.396       .  D
C1751      C2149   1.516       .  S
C1752      C1862   1.550   1_554  S
C1752      C1875   1.564   1_554  S
C1753      C1754   1.396       .  D
C1753      C2133   1.506       .  S
C1754      C1890   1.548       .  S
C1754      C1904   1.563       .  S
O1755      C1765   1.276       .  A
O1756     Ni1763   1.905       .  S
O1756      C1766   1.276       .  A
O1757     Ni1763   1.925       .  S
O1757      C1767   1.284       .  A
O1758      C1768   1.285       .  A
O1759     Ni1764   1.911       .  S
O1760     Ni1764   1.891       .  S
O1760      C1767   1.277       .  A
O1761     Ni1764   1.919       .  S
O1761      C1766   1.284       .  A
O1762     Ni1764   1.932       .  S
Ni1763    Ni1764   2.390       .  S
C1765      C2130   1.470       .  S
C1766      C2261   1.470       .  S
C1767      C2277   1.494       .  S
C1768      C2146   1.468       .  S
O1769     Ni1777   1.909       .  S
O1769      C1779   1.279       .  A
O1770     Ni1777   1.909       .  S
O1770      C1780   1.280       .  A
O1771     Ni1777   1.915       .  S
O1771      C1781   1.279       .  A
O1772     Ni1777   1.907       .  S
O1772      C1782   1.281       .  A
O1773     Ni1778   1.901       .  S
O1773      C1782   1.278       .  A
O1774     Ni1778   1.906       .  S
O1774      C1781   1.280       .  A
O1775     Ni1778   1.894       .  S
O1775      C1780   1.279       .  A
O1776     Ni1778   1.899       .  S
O1776      C1779   1.277       .  A
Ni1777    Ni1778   2.388       .  S
C1779      C2117   1.478       .  S
C1780      C2197   1.471       .  S
C1781      C2181   1.463       .  S
C1782      C2165   1.486       .  S
C1783      C1784   1.399       .  D
C1783      C2098   1.511       .  S
C1784      C1850   1.555       .  S
C1785      C1786   1.414       .  D
C1785      C1876   1.553       .  S
C1786      C2053   1.540       .  S
C1787      C1788   1.383       .  D
C1787      C2021   1.473       .  S
C1787      C2034   1.500       .  S
C1788      C1848   1.557       .  S
C1788      C1878   1.546       .  S
C1789      C1790   1.390       .  D
C1789      C2002   1.500       .  S
C1790      C1889   1.562       .  S
O1791     Ni1799   1.904       .  S
O1791      C1801   1.278       .  A
O1792     Ni1799   1.917       .  S
O1792      C1802   1.280       .  A
O1793     Ni1799   1.921       .  S
O1793      C1803   1.279       .  A
O1794     Ni1799   1.913       .  S
O1794      C1804   1.282       .  A
O1795     Ni1800   1.915       .  S
O1795      C1804   1.278       .  A
O1796     Ni1800   1.901       .  S
O1796      C1803   1.281       .  A
O1797     Ni1800   1.931       .  S
O1797      C1802   1.283       .  A
O1798     Ni1800   1.932       .  S
O1798      C1801   1.284       .  A
Ni1799    Ni1800   2.387       .  S
C1802      C2101   1.479       .  S
C1803      C1970   1.497       .  S
C1805      C1806   1.413       .  D
C1805      C1919   1.551       .  S
C1806      C1973   1.516       .  S
C1807      C1808   1.388       .  D
C1807      C1891   1.564       .  S
C1807      C1917   1.568       .  S
C1808      C1925   1.499       .  S
C1808      C1938   1.499       .  S
O1809     Ni1817   1.933       .  S
O1809      C1819   1.290       .  A
O1810     Ni1817   1.931       .  S
O1810      C1820   1.287       .  A
O1811     Ni1817   1.893       .  S
O1811      C1821   1.272       .  A
O1812     Ni1817   1.906       .  S
O1812      C1822   1.273       .  A
O1813     Ni1818   1.933       .  S
O1813      C1822   1.287       .  A
O1814     Ni1818   1.935       .  S
O1814      C1821   1.288       .  A
O1815     Ni1818   1.880       .  S
O1815      C1820   1.271       .  A
O1816     Ni1818   1.863       .  S
O1816      C1819   1.265       .  A
Ni1817    Ni1818   2.390       .  S
C1819      C2085   1.466       .  S
C1822      C1957   1.478       .  S
O1823     Ni1831   1.912       .  S
O1823      C1833   1.279       .  A
O1824     Ni1831   1.903       .  S
O1824      C1834   1.279       .  A
O1825     Ni1831   1.908       .  S
O1825      C1835   1.280       .  A
O1826     Ni1831   1.908       .  S
O1826      C1836   1.280       .  A
O1827     Ni1832   1.903       .  S
O1827      C1836   1.278       .  A
O1828     Ni1832   1.921       .  S
O1828      C1835   1.280       .  A
O1829     Ni1832   1.907       .  S
O1829      C1834   1.278       .  A
O1830     Ni1832   1.905       .  S
O1830      C1833   1.279       .  A
Ni1831    Ni1832   2.388       .  S
C1833      C2069   1.492       .  S
C1834      C1941   1.458       .  S
C1835      C2018   1.470       .  S
C1836      C1989   1.479       .  S
O1837     Ni1845   1.973       .  S
O1837      C1847   1.285       .  A
O1838     Ni1845   1.952       .  S
O1838      C1848   1.296       .  A
O1839     Ni1845   1.980       .  S
O1839      C1849   1.284       .  A
O1840     Ni1845   1.971       .  S
O1840      C1850   1.296       .  A
O1841     Ni1846   1.959       .  S
O1841      C1850   1.283       .  A
O1842     Ni1846   1.934   1_554  S
O1842      C1849   1.286   1_554  A
O1843     Ni1846   1.958       .  S
O1843      C1848   1.279       .  A
O1844     Ni1846   1.947   1_554  S
O1844      C1847   1.292   1_554  A
Ni1845    Ni1846   2.353       .  S
O1851     Ni1859   1.989   1_455  S
O1851      C1861   1.290       .  A
O1852     Ni1859   1.938   1_554  S
O1852      C1862   1.289   1_554  A
O1853     Ni1859   1.982   1_455  S
O1853      C1863   1.285       .  A
O1854     Ni1859   1.963   1_554  S
O1854      C1864   1.289   1_554  A
O1855     Ni1860   1.971       .  S
O1855      C1864   1.287       .  A
O1856     Ni1860   1.964       .  S
O1856      C1863   1.287   1_655  A
O1857     Ni1860   1.960       .  S
O1857      C1862   1.280       .  A
O1858     Ni1860   1.993       .  S
O1858      C1861   1.293   1_655  A
Ni1859    Ni1860   2.345       .  S
O1865      C1875   1.284       .  A
O1866     Ni1873   1.932       .  S
O1866      C1876   1.281       .  A
O1867      C1877   1.283       .  A
O1868     Ni1873   1.937       .  S
O1868      C1878   1.290       .  A
O1869     Ni1874   1.964       .  S
O1869      C1878   1.283       .  A
O1870     Ni1874   1.973   1_554  S
O1871     Ni1874   1.975       .  S
O1871      C1876   1.283       .  A
O1872     Ni1874   1.978   1_554  S
Ni1873    Ni1874   2.352       .  S
O1879     Ni1887   1.981       .  S
O1879      C1889   1.289       .  A
O1880     Ni1887   1.954       .  S
O1881     Ni1887   1.966       .  S
O1881      C1891   1.279       .  A
O1882     Ni1887   1.975       .  S
O1883      C1892   1.289       .  A
O1884     Ni1888   1.954       .  S
O1884      C1891   1.295       .  A
O1885      C1890   1.278       .  A
O1886     Ni1888   1.946       .  S
O1886      C1889   1.288       .  A
Ni1887    Ni1888   2.348       .  S
O1893     Ni1901   1.956       .  S
O1893      C1903   1.293   1_655  A
O1894     Ni1901   1.987       .  S
O1894      C1904   1.292       .  A
O1895     Ni1901   1.967       .  S
O1895      C1905   1.288   1_655  A
O1896     Ni1901   1.958       .  S
O1896      C1906   1.278       .  A
O1897     Ni1902   1.959       .  S
O1897      C1906   1.297       .  A
O1898     Ni1902   1.986   1_455  S
O1898      C1905   1.292       .  A
O1899     Ni1902   1.946       .  S
O1899      C1904   1.287       .  A
O1900     Ni1902   1.955   1_455  S
O1900      C1903   1.278       .  A
Ni1901    Ni1902   2.351       .  S
O1907     Ni1915   1.970       .  S
O1907      C1917   1.283       .  A
O1908     Ni1915   1.952       .  S
O1908      C1918   1.283       .  A
O1909     Ni1915   1.966       .  S
O1909      C1919   1.282       .  A
O1910     Ni1915   1.978       .  S
O1910      C1920   1.294       .  A
O1911     Ni1916   1.971       .  S
O1911      C1920   1.284       .  A
O1912     Ni1916   1.954       .  S
O1912      C1919   1.285       .  A
O1913     Ni1916   1.972       .  S
O1913      C1918   1.283       .  A
O1914     Ni1916   1.980       .  S
O1914      C1917   1.296       .  A
Ni1915    Ni1916   2.342       .  S
C1921      C1922   1.407       .  A
C1921      C1926   1.395       .  A
C1921      H1928   1.074       .  S
C1922      C1923   1.400       .  A
C1923      C1924   1.402       .  A
C1923      C1930   1.491       .  S
C1924      C1925   1.412       .  A
C1924      H1929   1.084       .  S
C1925      C1926   1.398       .  A
C1926      C1927   1.502       .  S
C1927      H1931   1.109       .  S
C1927      H1932   1.111       .  S
C1927      H1933   1.100       .  S
C1930      H1934   1.109   1_565  S
C1930      H1935   1.111       .  S
C1930      H1936   1.100       .  S
C1937      C1938   1.412       .  A
C1937      C1942   1.398       .  A
C1937      H1944   1.074       .  S
C1938      C1939   1.418       .  A
C1939      C1940   1.403       .  A
C1939      C1946   1.507       .  S
C1940      C1941   1.404       .  A
C1940      H1945   1.084       .  S
C1941      C1942   1.397       .  A
C1942      C1943   1.507       .  S
C1943      H1947   1.106       .  S
C1943      H1948   1.110       .  S
C1943      H1949   1.110       .  S
C1946      H1950   1.107       .  S
C1946      H1951   1.109       .  S
C1946      H1952   1.107       .  S
C1953      C1954   1.408   1_655  A
C1953      C1958   1.400       .  A
C1953      H1960   1.081       .  S
C1954      C1955   1.439       .  A
C1955      C1956   1.404   1_455  A
C1956      C1957   1.388       .  A
C1956      H1961   1.085   1_655  S
C1957      C1958   1.412       .  A
C1958      C1959   1.498       .  S
C1959      H1963   1.111       .  S
C1959      H1964   1.110       .  S
C1959      H1965   1.090       .  S
C1962      H1966   1.104       .  S
C1962      H1967   1.102       .  S
C1962      H1968   1.102       .  S
C1969      C1970   1.403       .  A
C1969      C1974   1.401       .  A
C1969      H1976   1.084       .  S
C1970      C1971   1.425       .  A
C1971      C1972   1.407       .  A
C1971      C1978   1.488       .  S
C1972      C1973   1.396       .  A
C1972      H1977   1.086       .  S
C1973      C1974   1.419       .  A
C1974      C1975   1.492       .  S
C1975      H1979   1.102       .  S
C1975      H1980   1.106       .  S
C1975      H1981   1.108       .  S
C1978      H1982   1.100       .  S
C1978      H1983   1.098       .  S
C1978      H1984   1.091       .  S
C1985      C1986   1.398       .  A
C1985      C1990   1.402       .  A
C1985      H1992   1.085       .  S
C1986      C1987   1.416       .  A
C1987      C1988   1.396       .  A
C1988      C1989   1.392       .  A
C1988      H1993   1.085       .  S
C1989      C1990   1.413       .  A
C1990      C1991   1.489       .  S
C1991      H1995   1.107       .  S
C1991      H1996   1.105       .  S
C1991      H1997   1.106       .  S
C1994      H1998   1.106       .  S
C1994      H1999   1.109       .  S
C1994      H2000   1.101       .  S
C2001      C2002   1.399       .  A
C2001      C2006   1.402       .  A
C2001      H2008   1.084       .  S
C2002      C2003   1.409       .  A
C2003      C2004   1.395       .  A
C2003      C2010   1.473       .  S
C2004      C2005   1.386       .  A
C2004      H2009   1.085       .  S
C2005      C2006   1.416       .  A
C2006      C2007   1.483   1_565  S
C2007      H2012   1.110       .  S
C2007      H2013   1.088       .  S
C2010      H2014   1.108       .  S
C2010      H2015   1.104       .  S
C2010      H2016   1.103       .  S
C2017      C2018   1.394       .  A
C2017      C2022   1.402       .  A
C2017      H2024   1.084       .  S
C2018      C2019   1.413       .  A
C2019      C2020   1.382       .  A
C2019      C2026   1.469       .  S
C2020      C2021   1.376       .  A
C2020      H2025   1.085       .  S
C2021      C2022   1.407       .  A
C2022      C2023   1.480       .  S
C2023      H2027   1.108       .  S
C2023      H2028   1.109       .  S
C2023      H2029   1.102       .  S
C2026      H2030   1.106       .  S
C2026      H2031   1.098       .  S
C2026      H2032   1.107       .  S
C2033      C2034   1.410       .  A
C2033      C2038   1.407       .  A
C2033      H2040   1.066       .  S
C2034      C2035   1.413       .  A
C2035      C2036   1.398       .  A
C2035      C2042   1.508       .  S
C2036      C2037   1.400       .  A
C2036      H2041   1.071   1_565  S
C2037      C2038   1.395       .  A
C2038      C2039   1.505       .  S
C2039      H2043   1.105       .  S
C2039      H2044   1.111       .  S
C2039      H2045   1.110       .  S
C2042      H2046   1.105       .  S
C2042      H2047   1.110   1_565  S
C2042      H2048   1.108       .  S
C2049      C2050   1.391       .  A
C2049      C2054   1.400       .  A
C2049      H2056   1.085       .  S
C2050      C2051   1.404       .  A
C2051      C2052   1.400       .  A
C2052      C2053   1.420       .  A
C2052      H2057   1.079       .  S
C2053      C2054   1.427       .  A
C2054      C2055   1.490       .  S
C2055      H2059   1.099       .  S
C2055      H2060   1.104       .  S
C2055      H2061   1.104       .  S
C2058      H2062   1.103       .  S
C2058      H2063   1.110       .  S
C2058      H2064   1.111       .  S
C2065      C2066   1.386       .  A
C2065      C2070   1.397       .  A
C2065      H2072   1.036       .  S
C2066      C2067   1.408       .  A
C2067      C2068   1.411       .  A
C2067      C2074   1.497   1_655  S
C2068      C2069   1.414       .  A
C2068      H2073   1.083       .  S
C2069      C2070   1.420       .  A
C2070      C2071   1.511       .  S
C2071      H2075   1.104       .  S
C2071      H2076   1.111       .  S
C2071      H2077   1.109       .  S
C2074      H2078   1.098       .  S
C2074      H2079   1.110   1_455  S
C2074      H2080   1.106   1_455  S
C2081      C2082   1.403       .  A
C2081      C2086   1.405       .  A
C2082      C2083   1.413       .  A
C2083      C2084   1.388       .  A
C2083      C2090   1.465       .  S
C2084      C2085   1.375       .  A
C2084      H2089   1.084       .  S
C2085      C2086   1.424       .  A
C2086      C2087   1.507       .  S
C2087      H2091   1.106       .  S
C2087      H2092   1.109       .  S
C2087      H2093   1.105       .  S
C2090      H2094   1.106   1_655  S
C2090      H2095   1.098       .  S
C2090      H2096   1.102       .  S
C2097      C2098   1.415       .  A
C2097      C2102   1.398       .  A
C2097      H2104   1.079       .  S
C2098      C2099   1.415       .  A
C2099      C2100   1.411       .  A
C2099      C2106   1.508       .  S
C2100      C2101   1.408       .  A
C2100      H2105   1.080       .  S
C2101      C2102   1.401       .  A
C2102      C2103   1.508       .  S
C2103      H2107   1.111       .  S
C2103      H2108   1.111       .  S
C2103      H2109   1.110       .  S
C2106      H2110   1.105       .  S
C2106      H2111   1.110       .  S
C2106      H2112   1.103       .  S
C2113      C2114   1.398   1_565  A
C2113      C2118   1.403       .  A
C2113      H2120   1.085   1_565  S
C2115      C2122   1.489       .  S
C2116      C2117   1.390       .  A
C2116      H2121   1.085       .  S
C2117      C2118   1.413       .  A
C2118      C2119   1.495       .  S
C2119      H2123   1.100       .  S
C2119      H2124   1.094       .  S
C2119      H2125   1.097       .  S
C2122      H2126   1.105       .  S
C2122      H2127   1.109       .  S
C2122      H2128   1.100       .  S
C2129      C2130   1.386       .  A
C2129      C2134   1.391       .  A
C2129      H2136   1.086       .  S
C2130      C2131   1.420       .  A
C2131      C2132   1.409       .  A
C2131      C2138   1.496   1_655  S
C2132      C2133   1.405       .  A
C2132      H2137   1.084       .  S
C2133      C2134   1.410       .  A
C2134      C2135   1.477       .  S
C2135      H2139   1.101       .  S
C2135      H2140   1.106       .  S
C2135      H2141   1.105       .  S
C2138      H2143   1.106       .  S
C2138      H2144   1.110       .  S
C2145      C2146   1.387       .  A
C2145      C2150   1.396       .  A
C2145      H2152   1.084       .  S
C2146      C2147   1.413       .  A
C2147      C2148   1.407       .  A
C2148      C2149   1.407       .  A
C2148      H2153   1.080       .  S
C2149      C2150   1.399       .  A
C2150      C2151   1.467       .  S
C2151      H2155   1.094       .  S
C2151      H2156   1.104       .  S
C2151      H2157   1.099       .  S
C2154      H2158   1.100       .  S
C2154      H2159   1.110       .  S
C2154      H2160   1.111       .  S
C2161      C2162   1.398   1_565  A
C2161      C2166   1.397       .  A
C2162      C2163   1.401   1_545  A
C2163      C2164   1.405       .  A
C2163      C2170   1.493   1_565  S
C2164      C2165   1.411       .  A
C2164      H2169   1.083       .  S
C2165      C2166   1.412       .  A
C2166      C2167   1.506       .  S
C2167      H2171   1.107       .  S
C2167      H2172   1.110       .  S
C2167      H2173   1.110       .  S
C2170      H2175   1.109   1_545  S
C2170      H2176   1.102   1_545  S
C2177      C2178   1.413       .  A
C2177      C2182   1.398       .  A
C2177      H2184   1.075       .  S
C2178      C2179   1.417       .  A
C2179      C2180   1.406       .  A
C2179      C2186   1.510       .  S
C2180      C2181   1.406       .  A
C2180      H2185   1.085       .  S
C2181      C2182   1.399       .  A
C2182      C2183   1.507       .  S
C2183      H2187   1.109       .  S
C2183      H2188   1.110       .  S
C2183      H2189   1.110       .  S
C2186      H2190   1.106       .  S
C2186      H2191   1.108       .  S
C2186      H2192   1.104       .  S
C2193      C2194   1.410       .  A
C2193      C2198   1.399       .  A
C2193      H2200   1.081       .  S
C2194      C2195   1.395       .  A
C2195      C2196   1.395       .  A
C2195      C2202   1.501       .  S
C2196      C2197   1.410       .  A
C2196      H2201   1.081       .  S
C2197      C2198   1.409       .  A
C2198      C2199   1.503       .  S
C2199      H2203   1.109       .  S
C2199      H2204   1.110       .  S
C2199      H2205   1.106       .  S
C2202      H2206   1.110       .  S
C2202      H2207   1.100       .  S
C2202      H2208   1.095       .  S
C2209      C2210   1.408       .  A
C2209      C2214   1.398       .  A
C2209      H2216   1.082       .  S
C2210      C2211   1.399       .  A
C2211      C2212   1.403       .  A
C2211      C2218   1.489       .  S
C2212      C2213   1.407       .  A
C2212      H2217   1.083       .  S
C2213      C2214   1.398       .  A
C2214      C2215   1.501       .  S
C2215      H2219   1.111       .  S
C2215      H2220   1.110       .  S
C2215      H2221   1.097       .  S
C2218      H2222   1.104       .  S
C2218      H2223   1.099       .  S
C2218      H2224   1.102       .  S
C2225      C2226   1.383       .  A
C2225      C2230   1.398       .  A
C2225      H2232   1.085       .  S
C2226      C2227   1.412       .  A
C2227      C2228   1.405       .  A
C2227      C2234   1.502   1_655  S
C2228      C2229   1.411       .  A
C2228      H2233   1.080       .  S
C2229      C2230   1.440       .  A
C2230      C2231   1.495       .  S
C2231      H2235   1.106       .  S
C2231      H2236   1.103       .  S
C2231      H2237   1.105       .  S
C2234      H2240   1.111       .  S
C2241      C2242   1.381       .  A
C2241      C2246   1.396   1_565  A
C2241      H2248   1.082       .  S
C2242      C2243   1.416       .  A
C2243      C2244   1.399       .  A
C2243      C2250   1.504       .  S
C2247      H2252   1.089       .  S
C2247      H2253   1.098       .  S
C2250      H2254   1.109       .  S
C2250      H2255   1.105       .  S
C2250      H2256   1.100       .  S
C2257      C2258   1.400       .  A
C2257      C2262   1.396       .  A
C2257      H2264   1.061       .  S
C2258      C2259   1.404       .  A
C2259      C2260   1.409       .  A
C2259      C2266   1.504       .  S
C2260      C2261   1.412       .  A
C2260      H2265   1.083       .  S
C2261      C2262   1.399       .  A
C2262      C2263   1.508       .  S
C2263      H2267   1.105       .  S
C2263      H2268   1.111       .  S
C2263      H2269   1.106       .  S
C2266      H2270   1.104       .  S
C2266      H2271   1.109       .  S
C2266      H2272   1.107       .  S
C2273      C2274   1.401       .  A
C2273      C2278   1.407       .  A
C2273      H2280   1.085       .  S
C2274      C2275   1.422       .  A
C2275      C2276   1.399       .  A
C2275      C2282   1.489       .  S
C2276      C2277   1.395       .  A
C2276      H2281   1.084       .  S
C2277      C2278   1.413       .  A
C2278      C2279   1.476       .  S
C2279      H2283   1.103       .  S
C2279      H2284   1.107       .  S
C2279      H2285   1.105       .  S
C2282      H2286   1.105       .  S
C2282      H2287   1.107       .  S
C2282      H2288   1.100       .  S
C2289      C2290   1.386   1_545  A
C2289      H2296   1.085       .  S
C2290      C2291   1.414       .  A
C2291      C2292   1.396       .  A
C2291      C2298   1.502       .  S
C2292      H2297   1.083       .  S
C2293      C2294   1.432       .  A
C2294      C2295   1.494       .  S
C2295      H2299   1.100       .  S
C2295      H2300   1.106       .  S
C2295      H2301   1.101       .  S
C2298      H2302   1.110       .  S
C2298      H2303   1.102       .  S
C2298      H2304   1.105       .  S
