geometry optimzed in LAMMPS
_audit_creation_date              2020-11-30 
_audit_creation_method            'lammps2cif' 
_symmetry_space_group_name_H-M    'P1' 
_symmetry_Int_Tables_number       1 
_symmetry_cell_setting            triclinic 
loop_ 
_symmetry_equiv_pos_as_xyz 
  x,y,z 
_cell_length_a                    45.94311561 
_cell_length_b                    45.991589528346694 
_cell_length_c                    46.016172389140756 
_cell_angle_alpha                 90.05800747210483 
_cell_angle_beta                  89.93053404126556 
_cell_angle_gamma                 90.0452110786521 
loop_ 
_atom_site_label 
_atom_site_type_symbol 
_atom_site_fract_x 
_atom_site_fract_y 
_atom_site_fract_z 
_atom_site_charge 
C1          C  0.22277433  0.87306038  0.97777992     0.81000
N2          N  0.22153227  0.85898725  0.00365860    -0.77300
C3          C  0.22241702  0.87379621  0.02917177     0.83400
N4          N  0.22441343  0.90318259  0.02870066    -0.77300
C5          C  0.22613389  0.91772762  0.00307673     0.83500
N6          N  0.22535861  0.90260740  0.97758412    -0.79000
C7          C  0.60834101  0.99984221  0.01787027     0.81000
N8          N  0.60688226  0.01262031  0.99132654    -0.77300
C9          C  0.60648302  0.99638890  0.96668648     0.83400
N10         N  0.60840626  0.96695427  0.96853067    -0.77300
C11         C  0.60977830  0.95382383  0.99496667     0.83500
N12         N  0.60996282  0.97038680  0.01950084    -0.79000
C13         C  0.85380112  0.96276554  0.30974411     0.81000
N14         N  0.88342371  0.96272935  0.30913225    -0.77300
C15         C  0.89830682  0.93708030  0.30782797     0.83400
N16         N  0.88328172  0.91154673  0.30616919    -0.77300
C17         C  0.85364781  0.91161656  0.30586340     0.83500
N18         N  0.83929898  0.93722270  0.30798901    -0.79000
C19         C  0.97929785  0.96646231  0.69289499     0.81000
N20         N  0.99442474  0.94117091  0.69105011    -0.77300
C21         C  0.98038723  0.91519619  0.69074670     0.83400
N22         N  0.95088903  0.91470695  0.69208683    -0.77300
C23         C  0.93539579  0.93977586  0.69422728     0.83500
N24         N  0.94972037  0.96573097  0.69499898    -0.79000
C25         C  0.94917405  0.63101115  0.05659851     0.81000
N26         N  0.94980864  0.63010447  0.02696913    -0.77300
C27         C  0.92449037  0.63158514  0.01151677     0.83400
N28         N  0.89868071  0.63419598  0.02583973    -0.77300
C29         C  0.89793809  0.63552891  0.05527883     0.83500
N30         N  0.92323501  0.63429788  0.07033044    -0.79000
C31         C  0.94151037  0.22900349  0.94397966     0.81000
N32         N  0.91609657  0.22746382  0.92890937    -0.77300
C33         C  0.89009441  0.22865236  0.94292565     0.83400
N34         N  0.88949973  0.23187641  0.97227857    -0.77300
C35         C  0.91478268  0.23311896  0.98760661     0.83500
N36         N  0.94063904  0.23144222  0.97338017    -0.79000
C37         C  0.61819765  0.87595220  0.97500859     0.81000
N38         N  0.61463293  0.90524871  0.97274962    -0.77300
C39         C  0.61235360  0.92195286  0.99714711     0.83400
N40         N  0.61350505  0.90916511  0.02377747    -0.77300
C41         C  0.61696136  0.87994433  0.02604244     0.83500
N42         N  0.61905190  0.86351890  0.00168174    -0.79000
C43         C  0.23129606  0.99463626  0.97877156     0.81000
N44         N  0.23035075  0.96503553  0.97818045    -0.77300
C45         C  0.22776610  0.94973464  0.00339053     0.83400
N46         N  0.22573856  0.96420600  0.02915953    -0.77300
C47         C  0.22621994  0.99369730  0.02972225     0.83500
N48         N  0.22860472  0.00865158  0.00453041    -0.79000
C49         C  0.85784604  0.96126852  0.70358200     0.81000
N50         N  0.84486042  0.93478720  0.70413330    -0.77300
C51         C  0.86069442  0.91010938  0.70158032     0.83400
N52         N  0.88998800  0.91185264  0.69803517    -0.77300
C53         C  0.90341435  0.93827914  0.69718354     0.83500
N54         N  0.88723988  0.96296997  0.69989582    -0.79000
C55         C  0.97522739  0.91152635  0.30567906     0.81000
N56         N  0.94559518  0.91153326  0.30693021    -0.77300
C57         C  0.93050955  0.93707005  0.30710958     0.83400
N58         N  0.94528571  0.96270019  0.30581820    -0.77300
C59         C  0.97482419  0.96290243  0.30439913     0.83500
N60         N  0.98953758  0.93733161  0.30400364    -0.79000
C61         C  0.89829187  0.62746839  0.93534137     0.81000
N62         N  0.89880255  0.62845783  0.96486992    -0.77300
C63         C  0.92455097  0.63035324  0.97943610     0.83400
N64         N  0.94993734  0.63201467  0.96419006    -0.77300
C65         C  0.94944679  0.63176234  0.93462007     0.83500
N66         N  0.92368154  0.62943958  0.92046701    -0.79000
C67         C  0.88685335  0.23996482  0.06271477     0.81000
N68         N  0.91204270  0.24020027  0.07821363    -0.77300
C69         C  0.93823699  0.23830281  0.06460335     0.83400
N70         N  0.93918744  0.23576111  0.03516411    -0.77300
C71         C  0.91409615  0.23590339  0.01944330     0.83500
N72         N  0.88811366  0.23807836  0.03333667    -0.79000
C73         C  0.35933248  0.46871512  0.80877350     0.81000
N74         N  0.34326485  0.44405805  0.80907383    -0.77300
C75         C  0.35593891  0.41749871  0.80889033     0.83400
N76         N  0.38556751  0.41576735  0.80952103    -0.77300
C77         C  0.40204580  0.44045353  0.80993492     0.83500
N78         N  0.38877968  0.46687384  0.80927599    -0.79000
C79         C  0.35588649  0.41068630  0.19157192     0.81000
N80         N  0.38546241  0.41153071  0.19022564    -0.77300
C81         C  0.39983288  0.43746170  0.19139078     0.83400
N82         N  0.38440237  0.46259845  0.19427724    -0.77300
C83         C  0.35485309  0.46186028  0.19603653     0.83500
N84         N  0.34092088  0.43594773  0.19421322    -0.79000
C85         C  0.11845440  0.37473878  0.53407777     0.81000
N86         N  0.11677273  0.40417911  0.53258872    -0.77300
C87         C  0.11762527  0.41782464  0.50635517     0.83400
N88         N  0.12018149  0.40182253  0.48159516    -0.77300
C89         C  0.12191946  0.37233684  0.48301473     0.83500
N90         N  0.12071361  0.35901814  0.50927014    -0.79000
O91         O  0.17016157  0.23557302  0.70644947    -0.77700
C92         C  0.22664379  0.24272856  0.78237640     0.83300
O93         O  0.21180043  0.14076052  0.71933412    -0.78900
O94         O  0.19718299  0.15908607  0.82061797    -0.80300
O95         O  0.10951422  0.20837870  0.79012239    -0.80100
O96         O  0.12419527  0.22911975  0.72035930    -0.78800
Zn97       Zn  0.19520794  0.21129559  0.73285109     1.55700
O98         O  0.14489093  0.20762474  0.82334217    -0.80200
Cd99       Cd  0.12951701  0.19661174  0.75157218     1.59700
Cd100      Cd  0.17939855  0.14574141  0.75027558     1.59600
O101        O  0.10781892  0.15957982  0.73745134    -0.80100
O102        O  0.17170322  0.18776567  0.75855994    -1.90700
Cd103      Cd  0.18197789  0.19627026  0.80010953     1.59900
O104        O  0.14197903  0.12551338  0.73568284    -0.80100
O105        O  0.21347750  0.22901475  0.80264160    -0.78800
C106        C  0.22625687  0.15952970  0.70501261     0.83800
C107        C  0.14312305  0.24123203  0.70406532     0.83400
O108        O  0.22091674  0.23801302  0.75576053    -0.77700
C109        C  0.11823326  0.21069159  0.81632379     0.84200
O110        O  0.22179181  0.18667858  0.70822026    -0.77800
C111        C  0.11560025  0.13349657  0.73233464     0.84400
C112        C  0.19907257  0.13245418  0.81304583     0.84700
O113        O  0.19267718  0.12408410  0.78744745    -0.80200
C114        C  0.72904383  0.37776447  0.52490529     0.81000
N115        N  0.72763800  0.40720392  0.52334931    -0.77300
C116        C  0.72780991  0.42080713  0.49712359     0.83400
N117        N  0.72939052  0.40463972  0.47226069    -0.77300
C118        C  0.73122142  0.37505382  0.47355901     0.83500
N119        N  0.73077702  0.36199866  0.49999196    -0.79000
C120        C  0.38875467  0.12450058  0.56283345     0.81000
N121        N  0.38815612  0.12102611  0.53339570    -0.77300
C122        C  0.41355139  0.12052252  0.51795813     0.83400
N123        N  0.43935356  0.12390237  0.53214235    -0.77300
C124        C  0.43994511  0.12780802  0.56138778     0.83500
N125        N  0.41466393  0.12770574  0.57653297    -0.79000
O126        O  0.61642997  0.18618694  0.69559283    -0.77700
C127        C  0.61260899  0.24360497  0.77053999     0.83300
O128        O  0.71296072  0.22911525  0.70666983    -0.78900
O129        O  0.69470346  0.20772092  0.81056233    -0.80300
O130        O  0.64550867  0.12412647  0.77515024    -0.80100
O131        O  0.62687230  0.14013458  0.70578538    -0.78800
Zn132      Zn  0.64233780  0.21084814  0.72073964     1.55700
O133        O  0.64248750  0.15938066  0.80832928    -0.80200
Cd134      Cd  0.65870527  0.14539695  0.73768998     1.59700
Cd135      Cd  0.70860147  0.19683670  0.73849128     1.59600
O136        O  0.69679522  0.12470349  0.72518189    -0.80100
O137        O  0.66651084  0.18759563  0.74601996    -1.90700
Cd138      Cd  0.65702309  0.19667985  0.78770321     1.59900
O139        O  0.73041580  0.15965576  0.72504822    -0.80100
O140        O  0.62571254  0.22978961  0.79075232    -0.78800
C141        C  0.69352879  0.24084131  0.69068473     0.83800
C142        C  0.61236697  0.15907874  0.69169756     0.83400
O143        O  0.61707896  0.23781028  0.74388567    -0.77700
C144        C  0.64072931  0.13268164  0.80107799     0.84200
O145        O  0.66661772  0.23531454  0.69406234    -0.77800
C146        C  0.72309552  0.13308288  0.72206638     0.84400
C147        C  0.72136453  0.21070325  0.80338130     0.84700
O148        O  0.72951392  0.20836792  0.77692974    -0.80200
C149        C  0.11788111  0.49352717  0.47830526     0.81000
N150        N  0.11760356  0.46394710  0.47907994    -0.77300
C151        C  0.11727293  0.44978992  0.50508571     0.83400
N152        N  0.11745597  0.46534807  0.53021432    -0.77300
C153        C  0.11788129  0.49481173  0.52955678     0.83500
N154        N  0.11780195  0.50867904  0.50359272    -0.79000
O155        O  0.17227879  0.74351904  0.79654839    -0.77700
C156        C  0.11876691  0.74902679  0.72011437     0.83300
O157        O  0.12973101  0.64739593  0.78372345    -0.78900
O158        O  0.15094364  0.66731438  0.68211290    -0.80300
O159        O  0.23619042  0.71608911  0.71862248    -0.80100
O160        O  0.21869839  0.73285380  0.78803422    -0.78800
Zn161      Zn  0.14801138  0.71788425  0.77090235     1.55700
O162        O  0.20259971  0.71720991  0.68396912    -0.80200
Cd163      Cd  0.21444730  0.70145661  0.75542303     1.59700
Cd164      Cd  0.16239234  0.65241841  0.75300823     1.59600
O165        O  0.23491225  0.66291652  0.76759076    -0.80100
O166        O  0.17229584  0.69416980  0.74619046    -1.90700
Cd167      Cd  0.16467977  0.70368932  0.70443700     1.59900
O168        O  0.19878960  0.63069277  0.76699919    -0.80100
O169        O  0.13302134  0.73559213  0.70050956    -0.78800
C170        C  0.11678829  0.66643877  0.79911843     0.83800
C171        C  0.19923956  0.74762427  0.80128521     0.83400
O172        O  0.12270501  0.74399312  0.74702289    -0.77700
C173        C  0.22878571  0.72079052  0.69230356     0.84200
O174        O  0.12198933  0.69348807  0.79638298    -0.77800
C175        C  0.22552447  0.63693069  0.77048678     0.84400
C176        C  0.14717232  0.64075927  0.68882967     0.84700
O177        O  0.15006711  0.63190597  0.71490533    -0.80200
C178        C  0.47954033  0.46309520  0.81019394     0.81000
N179        N  0.49302689  0.43682424  0.80876729    -0.77300
C180        C  0.47751006  0.41165620  0.80782474     0.83400
N181        N  0.44794706  0.41281453  0.80860616    -0.77300
C182        C  0.43409378  0.43891666  0.80998588     0.83500
N183        N  0.44999918  0.46389220  0.81051014    -0.79000
C184        C  0.39719463  0.75003856  0.55613240     0.81000
N185        N  0.39746326  0.74804757  0.52669125    -0.77300
C186        C  0.42314154  0.74556202  0.51209912     0.83400
N187        N  0.44862098  0.74427334  0.52731649    -0.77300
C188        C  0.44840282  0.74572889  0.55691377     0.83500
N189        N  0.42256554  0.74848271  0.57093507    -0.79000
C190        C  0.72192811  0.49589473  0.46821595     0.81000
N191        N  0.71825377  0.51129473  0.49313855    -0.77300
C192        C  0.71772197  0.49802225  0.51942342     0.83400
N193        N  0.72140751  0.46863643  0.52063661    -0.77300
C194        C  0.72502581  0.45280269  0.49578522     0.83500
N195        N  0.72503935  0.46656106  0.46963172    -0.79000
O196        O  0.72116896  0.73676319  0.74845359    -0.77700
C197        C  0.64540939  0.74014656  0.80523971     0.83300
O198        O  0.71263584  0.64020923  0.78991106    -0.78900
O199        O  0.60719889  0.65813543  0.77323581    -0.80300
O200        O  0.64126613  0.70784383  0.68702173    -0.80100
O201        O  0.71110381  0.72578812  0.70235376    -0.78800
Zn202      Zn  0.69626838  0.71066640  0.77350042     1.55700
O203        O  0.60776089  0.70925114  0.72205911    -0.80200
Cd204      Cd  0.67893395  0.69374139  0.70773155     1.59700
Cd205      Cd  0.67891898  0.64400344  0.75940191     1.59600
O206        O  0.69028688  0.65509599  0.68691212    -0.80100
O207        O  0.67112078  0.68602292  0.75007141    -1.90700
Cd208      Cd  0.62919798  0.69495815  0.75898781     1.59900
O209        O  0.68855124  0.62101171  0.72134495    -0.80100
O210        O  0.62582049  0.72643587  0.79121740    -0.78800
C211        C  0.72747908  0.65972245  0.80301787     0.83800
C212        C  0.72500839  0.74059494  0.72131228     0.83400
O213        O  0.67240360  0.73609562  0.80020897    -0.77700
C214        C  0.61530958  0.71270313  0.69563505     0.84200
O215        O  0.72335720  0.68670132  0.79832292    -0.77800
C216        C  0.69191077  0.62851275  0.69484065     0.84400
C217        C  0.61543053  0.63239188  0.77938721     0.84700
O218        O  0.64181059  0.62438882  0.77628400    -0.80200
C219        C  0.38869021  0.11645763  0.44089145     0.81000
N220        N  0.41485445  0.11608570  0.42704734    -0.77300
C221        C  0.44029911  0.11654581  0.44197212     0.83400
N222        N  0.43943037  0.11725903  0.47144863    -0.77300
C223        C  0.41357868  0.11770753  0.48590510     0.83500
N224        N  0.38823943  0.11723415  0.47051744    -0.79000
O225        O  0.60860185  0.18287829  0.29870874    -0.77700
C226        C  0.68473515  0.23785350  0.30802565     0.83300
O227        O  0.62243175  0.22805439  0.20332868    -0.78900
O228        O  0.72465413  0.20822600  0.22563696    -0.80300
O229        O  0.68856037  0.12096102  0.27069811    -0.80100
O230        O  0.61860926  0.13709949  0.28685185    -0.78800
Zn231      Zn  0.63482312  0.20854226  0.27424303     1.55700
O232        O  0.72226976  0.15537554  0.27371809    -0.80200
Cd233      Cd  0.65164366  0.14271288  0.25606488     1.59700
Cd234      Cd  0.65407397  0.19560993  0.20777030     1.59600
O235        O  0.64030660  0.12309348  0.21682353    -0.80100
O236        O  0.66015013  0.18519421  0.24989793    -1.90700
Cd237      Cd  0.70152123  0.19329956  0.26108807     1.59900
O238        O  0.64116634  0.15908100  0.18429040    -0.80100
O239        O  0.70455391  0.22385475  0.29450182    -0.78800
C240        C  0.60667572  0.24041262  0.22261114     0.83800
C241        C  0.60439103  0.15562712  0.30187132     0.83400
O242        O  0.65799788  0.23412493  0.30174766    -0.77700
C243        C  0.71462778  0.12888792  0.27621697     0.84200
O244        O  0.60968409  0.23457591  0.24948990    -0.77800
C245        C  0.63770878  0.13232896  0.19080788     0.84400
C246        C  0.71892378  0.21244738  0.19892912     0.84700
O247        O  0.69315116  0.20923373  0.18902001    -0.80200
C248        C  0.44806656  0.74385871  0.43514845     0.81000
N249        N  0.44835337  0.74532365  0.46471825    -0.77300
C250        C  0.42300827  0.74354483  0.48002966     0.83400
N251        N  0.39735442  0.73995659  0.46555724    -0.77300
C252        C  0.39710784  0.73744710  0.43610087     0.83500
N253        N  0.42244135  0.73958688  0.42126333    -0.79000
C254        C  0.47583698  0.46491105  0.18746977     0.81000
N255        N  0.49090995  0.43972448  0.18944524    -0.77300
C256        C  0.47717224  0.41381082  0.19197617     0.83400
N257        N  0.44755358  0.41309140  0.19204442    -0.77300
C258        C  0.43197250  0.43827013  0.19043538     0.83500
N259        N  0.44624630  0.46422561  0.18852041    -0.79000
O260        O  0.66709835  0.63087900  0.29099781    -0.77700
C261        C  0.61534506  0.70908020  0.29948376     0.83300
O262        O  0.62899025  0.64556949  0.19531431    -0.78900
O263        O  0.64940284  0.74820091  0.21781761    -0.80300
O264        O  0.73299158  0.71059057  0.26974549    -0.80100
O265        O  0.71390268  0.64035690  0.28347045    -0.78800
Zn266      Zn  0.64405691  0.65876083  0.26682151     1.55700
O267        O  0.69959244  0.74558331  0.26948749    -0.80200
Cd268      Cd  0.71104027  0.67438944  0.25377433     1.59700
Cd269      Cd  0.66175291  0.67674705  0.20175279     1.59600
O270        O  0.73290316  0.66294204  0.21629831    -0.80100
O271        O  0.66947411  0.68358482  0.24427227    -1.90700
Cd272      Cd  0.66203053  0.72530846  0.25447443     1.59900
O273        O  0.70001494  0.66389469  0.18081478    -0.80100
O274        O  0.62990504  0.72855987  0.28616916    -0.78800
C275        C  0.61433600  0.63117114  0.21399405     0.83800
C276        C  0.69381903  0.62554328  0.29566099     0.83400
O277        O  0.61886067  0.68217726  0.29384224    -0.77700
C278        C  0.72565206  0.73700917  0.27371834     0.84200
O279        O  0.61820641  0.63459333  0.24117201    -0.77800
C280        C  0.72607675  0.65993845  0.18966111     0.84400
C281        C  0.64561852  0.74139560  0.19124754     0.84700
O282        O  0.64905104  0.71533112  0.18230344    -0.80200
O283        O  0.11566439  0.68495272  0.20413882    -0.77700
C284        C  0.10805629  0.73889884  0.28115081     0.83300
O285        O  0.20964840  0.72865029  0.21335594    -0.78900
O286        O  0.19446727  0.71187808  0.31621453    -0.80300
O287        O  0.14535146  0.62315346  0.28411523    -0.80100
O288        O  0.12582799  0.63884742  0.21411168    -0.78800
Zn289      Zn  0.13986079  0.70997881  0.23026839     1.55700
O290        O  0.14638170  0.65804587  0.31787077    -0.80200
Cd291      Cd  0.15775945  0.64429674  0.24606768     1.59700
Cd292      Cd  0.20687339  0.69629884  0.24488840     1.59600
O293        O  0.19580756  0.62407185  0.23213868    -0.80100
O294        O  0.16523222  0.68670994  0.25419428    -1.90700
Cd295      Cd  0.15714917  0.69606298  0.29607085     1.59900
O296        O  0.22877354  0.65955495  0.23051337    -0.80100
O297        O  0.12339956  0.72645511  0.30064080    -0.78800
C298        C  0.18951764  0.74270190  0.20047305     0.83800
C299        C  0.11178212  0.65790017  0.19968394     0.83400
O300        O  0.11249044  0.73410333  0.25429731    -0.77700
C301        C  0.14269081  0.63154240  0.31042539     0.84200
O302        O  0.16278158  0.73731402  0.20518987    -0.77800
C303        C  0.22177546  0.63289658  0.22759374     0.84400
C304        C  0.22085998  0.71499016  0.30821060     0.84700
O305        O  0.22862546  0.71021630  0.28198387    -0.80200
O306        O  0.21577797  0.23835425  0.25102362    -0.77700
C307        C  0.14515819  0.23910992  0.31098634     0.83300
O308        O  0.20991117  0.13954171  0.28828497    -0.78900
O309        O  0.10607399  0.15677017  0.27848418    -0.80300
O310        O  0.13226537  0.20888596  0.19189249    -0.80100
O311        O  0.20214814  0.23174409  0.20510357    -0.78800
Zn312      Zn  0.19333011  0.21035778  0.27543597     1.55700
O313        O  0.10181017  0.20898165  0.22954463    -0.80200
Cd314      Cd  0.17234666  0.19745716  0.20985931     1.59700
Cd315      Cd  0.17659003  0.14505728  0.25806682     1.59600
O316        O  0.18715982  0.16145322  0.18657559    -0.80100
O317        O  0.16726442  0.18717202  0.25205486    -1.90700
Cd318      Cd  0.12616943  0.19494582  0.26471208     1.59900
O319        O  0.18998141  0.12620408  0.21936551    -0.80100
O320        O  0.12454180  0.22598228  0.29784288    -0.78800
C321        C  0.22591967  0.15845285  0.30079797     0.83800
C322        C  0.21711921  0.24514122  0.22430561     0.83400
O323        O  0.17165943  0.23452450  0.30439843    -0.77700
C324        C  0.10672231  0.21206478  0.20246325     0.84200
O325        O  0.22166687  0.18552276  0.29724093    -0.77800
C326        C  0.19281077  0.13515671  0.19326695     0.84400
C327        C  0.11406916  0.13018519  0.27894746     0.84700
O328        O  0.13977568  0.12274777  0.27166393    -0.80200
C329        C  0.53226399  0.52215156  0.16794983    -0.11100
C330        C  0.52873845  0.54179322  0.19093852     0.11500
C331        C  0.50491616  0.53852820  0.21024578    -0.02900
C332        C  0.48691155  0.51381869  0.20748282    -0.05700
C333        C  0.49211338  0.49271371  0.18602415    -0.16400
C334        C  0.51440404  0.49746338  0.16516698     0.02500
C335        C  0.55159747  0.56428767  0.19536660     0.12400
C336        C  0.49877926  0.56099306  0.23365840     0.63100
H337        H  0.46939279  0.51017312  0.22281587     0.12500
C338        C  0.51943555  0.47662203  0.14003192     0.55200
H339        H  0.55016185  0.52558116  0.15299926     0.08300
C340        C  0.57747589  0.55795171  0.21082549    -0.05600
C341        C  0.59755027  0.58046815  0.21579796    -0.06300
C342        C  0.59328305  0.60854702  0.20472846    -0.15900
C343        C  0.56838146  0.61439622  0.18752753    -0.01500
C344        C  0.54767279  0.59206387  0.18338618    -0.09000
C345        C  0.58388046  0.52754491  0.22206527     0.65300
H346        H  0.61690698  0.57635361  0.22856002     0.10700
C347        C  0.56340458  0.64411386  0.17420866     0.63700
H348        H  0.52813298  0.59609671  0.17090347     0.08100
F349        F  0.53141054  0.45097883  0.15006457    -0.19400
F350        F  0.53830327  0.48818534  0.11959656    -0.15600
F351        F  0.49331044  0.47075439  0.12629690    -0.19100
F352        F  0.49275782  0.58746215  0.22078635    -0.22500
F353        F  0.52267158  0.56408194  0.25163565    -0.24000
F354        F  0.47514554  0.55328707  0.25069347    -0.18000
F355        F  0.58559839  0.65032394  0.15486685    -0.20400
F356        F  0.56286480  0.66505439  0.19578773    -0.21600
F357        F  0.53730973  0.64541378  0.15922710    -0.18800
F358        F  0.61046792  0.52617892  0.23614233    -0.18900
F359        F  0.58469392  0.50811323  0.19914355    -0.22700
F360        F  0.56252572  0.51903039  0.24145038    -0.24300
C361        C  0.33893879  0.71256858  0.38262327    -0.11100
C362        C  0.31838841  0.73490131  0.38553688     0.11500
C363        C  0.32255635  0.75671347  0.40688176    -0.02900
C364        C  0.34823350  0.75624160  0.42363030    -0.05700
C365        C  0.36945019  0.73462923  0.41978055    -0.16400
C366        C  0.36453843  0.71198030  0.39937137     0.02500
C367        C  0.29224757  0.73377984  0.36648427     0.12400
C368        C  0.29995272  0.78021473  0.41204969     0.63100
H369        H  0.35224757  0.77313043  0.43954001     0.12500
C370        C  0.38565177  0.68678120  0.39583988     0.55200
H371        H  0.33479542  0.69566003  0.36676030     0.08300
C372        C  0.29303532  0.74312452  0.33719721    -0.05600
C373        C  0.26862686  0.73790357  0.31942730    -0.06300
C374        C  0.24366894  0.72343641  0.32983307    -0.15900
C375        C  0.24263064  0.71506199  0.35964946    -0.01500
C376        C  0.26713066  0.72033687  0.37730905    -0.09000
C377        C  0.31989167  0.75775385  0.32453984     0.65300
H378        H  0.26923963  0.74439241  0.29681766     0.10700
C379        C  0.21648249  0.69962098  0.37282345     0.63700
H380        H  0.26729841  0.71319930  0.39973350     0.08100
F381        F  0.41156666  0.69644075  0.38402751    -0.19400
F382        F  0.37467279  0.66542129  0.37764873    -0.15600
F383        F  0.39096583  0.67424526  0.42262111    -0.19100
F384        F  0.27437352  0.76770771  0.42174966    -0.22500
F385        F  0.29450240  0.79512685  0.38658811    -0.24000
F386        F  0.30905633  0.80014763  0.43270274    -0.18000
F387        F  0.22121510  0.69181333  0.40148090    -0.20400
F388        F  0.21052028  0.67448225  0.35739824    -0.21600
F389        F  0.19255315  0.71784236  0.37224833    -0.18800
F390        F  0.31540704  0.76683281  0.29621924    -0.18900
F391        F  0.34300948  0.73855057  0.32456629    -0.22700
F392        F  0.32721585  0.78187736  0.34089442    -0.24300
C393        C  0.50203395  0.75346193  0.37299191    -0.11100
C394        C  0.52565149  0.73747334  0.38348910     0.11500
C395        C  0.52576879  0.72783327  0.41264389    -0.02900
C396        C  0.50037591  0.73147113  0.42942460    -0.05700
C397        C  0.47546950  0.74502895  0.41799344    -0.16400
C398        C  0.47694300  0.75789322  0.38988618     0.02500
C399        C  0.54900165  0.72960870  0.36267860     0.12400
C400        C  0.55255740  0.71367774  0.42571265     0.63100
H401        H  0.49945859  0.72273273  0.45124198     0.12500
C402        C  0.45253758  0.77642842  0.37749229     0.55200
H403        H  0.50295999  0.76146146  0.35087094     0.08300
C404        C  0.54633854  0.70501272  0.34440093    -0.05600
C405        C  0.56864899  0.69917579  0.32435337    -0.06300
C406        C  0.59315192  0.71734720  0.32160454    -0.15900
C407        C  0.59584000  0.74193242  0.34021938    -0.01500
C408        C  0.57346564  0.74764913  0.36041695    -0.09000
C409        C  0.51966433  0.68540818  0.34559985     0.65300
H410        H  0.56670645  0.68057521  0.31005020     0.10700
C411        C  0.62220198  0.76186662  0.33932737     0.63700
H412        H  0.57467748  0.76649416  0.37448707     0.08100
F413        F  0.42998945  0.75892096  0.36801852    -0.19400
F414        F  0.46199756  0.79279330  0.35405409    -0.15600
F415        F  0.44239321  0.79553987  0.39841539    -0.19100
F416        F  0.57549595  0.73314741  0.42507471    -0.22500
F417        F  0.56012394  0.68915722  0.41005056    -0.24000
F418        F  0.54800827  0.70550804  0.45430454    -0.18000
F419        F  0.62218875  0.77758276  0.31372713    -0.20400
F420        F  0.64748527  0.74564785  0.34117149    -0.21600
F421        F  0.62219854  0.78146843  0.36218663    -0.18800
F422        F  0.52238743  0.66159464  0.32737219    -0.18900
F423        F  0.49531918  0.70086893  0.33715105    -0.22700
F424        F  0.51548260  0.67516488  0.37352325    -0.24300
C425        C  0.53856718  0.28802509  0.21999100    -0.11100
C426        C  0.54659829  0.30870395  0.19915386     0.11500
C427        C  0.57362451  0.30590256  0.18453533    -0.02900
C428        C  0.59205870  0.28248544  0.19183942    -0.05700
C429        C  0.58469002  0.26255490  0.21383716    -0.16400
C430        C  0.55704723  0.26487077  0.22761391     0.02500
C431        C  0.52812915  0.33513480  0.19642646     0.12400
C432        C  0.58330980  0.32809273  0.16203381     0.63100
H433        H  0.61306336  0.28038470  0.18135603     0.12500
C434        C  0.54685020  0.24317395  0.25036170     0.55200
H435        H  0.51804300  0.29094261  0.23122504     0.08300
C436        C  0.50262112  0.33617371  0.17920354    -0.05600
C437        C  0.48640643  0.36222605  0.17841882    -0.06300
C438        C  0.49463306  0.38674912  0.19474098    -0.15900
C439        C  0.51933202  0.38497211  0.21326044    -0.01500
C440        C  0.53567553  0.35915754  0.21355704    -0.09000
C441        C  0.49230250  0.30976559  0.16227806     0.65300
H442        H  0.46720043  0.36370504  0.16489577     0.10700
C443        C  0.52814704  0.40969028  0.23342531     0.63700
H444        H  0.55475202  0.35745374  0.22725643     0.08100
F445        F  0.51748344  0.24622842  0.25640536    -0.19400
F446        F  0.56198644  0.24739195  0.27597751    -0.15600
F447        F  0.55127879  0.21509119  0.24049633    -0.19100
F448        F  0.58620957  0.35513112  0.17484558    -0.22500
F449        F  0.56299870  0.32987020  0.13999844    -0.24000
F450        F  0.60980294  0.32077443  0.14968050    -0.18000
F451        F  0.54845154  0.40079767  0.25377087    -0.34800
F452        F  0.50408522  0.41986626  0.24841182    -0.21600
F453        F  0.54038515  0.43208006  0.21752886    -0.18800
F454        F  0.46764566  0.31576989  0.14609278    -0.18900
F455        F  0.48568108  0.28750786  0.18133207    -0.22700
F456        F  0.51378927  0.30045386  0.14343382    -0.24300
C457        C  0.51618850  0.13758108  0.41435650    -0.11100
C458        C  0.51621088  0.12388892  0.38711527     0.11500
C459        C  0.49326113  0.10475843  0.37978681    -0.02900
C460        C  0.46951553  0.10214121  0.39897092    -0.05700
C461        C  0.46833268  0.11739431  0.42549782    -0.16400
C462        C  0.49261730  0.13473604  0.43386216     0.02500
C463        C  0.53899855  0.13220482  0.36557162     0.12400
C464        C  0.49398892  0.08712202  0.35186026     0.63100
H465        H  0.45136629  0.08827195  0.39317133     0.12500
C466        C  0.49332489  0.15135376  0.46242300     0.55200
H467        H  0.53439475  0.15158163  0.41964100     0.08300
C468        C  0.53600744  0.15743662  0.34822589    -0.05600
C469        C  0.55758873  0.16376552  0.32745630    -0.06300
C470        C  0.58210732  0.14589429  0.32348187    -0.15900
C471        C  0.58526988  0.12074998  0.34124313    -0.01500
C472        C  0.56351909  0.11441045  0.36204664    -0.09000
C473        C  0.51004894  0.17764064  0.35170051     0.65300
H474        H  0.55542018  0.18295077  0.31401131     0.10700
C475        C  0.61162646  0.10096851  0.33888761     0.63700
H476        H  0.56533576  0.09533046  0.37568976     0.08100
F477        F  0.51794162  0.16855348  0.46486395    -0.19400
F478        F  0.49342441  0.13201179  0.48541863    -0.15600
F479        F  0.46929609  0.16936087  0.46445102    -0.19100
F480        F  0.51665897  0.06741171  0.35315500    -0.22500
F481        F  0.49803371  0.10511238  0.32814128    -0.24000
F482        F  0.46840591  0.07178047  0.34761070    -0.18000
F483        F  0.61208053  0.08029756  0.36074062    -0.20400
F484        F  0.63692298  0.11716987  0.34102852    -0.21600
F485        F  0.61114668  0.08650146  0.31253721    -0.18800
F486        F  0.51077395  0.20032996  0.33196604    -0.18900
F487        F  0.50995388  0.18946195  0.37932853    -0.22700
F488        F  0.48445116  0.16241112  0.34741657    -0.24300
C489        C  0.31286900  0.13451851  0.41054803    -0.11100
C490        C  0.31557515  0.12385034  0.38215934     0.11500
C491        C  0.34105971  0.10874077  0.37394950    -0.02900
C492        C  0.36341141  0.10537446  0.39452664    -0.05700
C493        C  0.36152877  0.11712522  0.42280604    -0.16400
C494        C  0.33524519  0.13127056  0.43124936     0.02500
C495        C  0.29248122  0.13121810  0.36080473     0.12400
C496        C  0.34499790  0.09696756  0.34329757     0.63100
H497        H  0.38315680  0.09420062  0.38818782     0.12500
C498        C  0.33074527  0.14367537  0.46145710     0.55200
H499        H  0.29318257  0.14623705  0.41607105     0.08300
C500        C  0.26559071  0.11623098  0.35947438    -0.05600
C501        C  0.24464134  0.12532465  0.33905704    -0.06300
C502        C  0.24976645  0.14894232  0.32034859    -0.15900
C503        C  0.27718965  0.16325073  0.32113172    -0.01500
C504        C  0.29779234  0.15443220  0.34185633    -0.09000
C505        C  0.25895905  0.09108896  0.37979808     0.65300
H506        H  0.22369658  0.11454342  0.33812209     0.10700
C507        C  0.28527812  0.18713585  0.29974923     0.63700
H508        H  0.31842446  0.16573474  0.34354415     0.08100
F509        F  0.30400447  0.15725818  0.46436109    -0.19400
F510        F  0.35209096  0.16405655  0.46739031    -0.15600
F511        F  0.33176693  0.12140217  0.48159208    -0.19100
F512        F  0.34656571  0.11969939  0.32374101    -0.22500
F513        F  0.32178973  0.07928502  0.33599637    -0.24000
F514        F  0.37023301  0.08075522  0.34060857    -0.18000
F515        F  0.27040924  0.21238829  0.30646367    -0.20400
F516        F  0.27847082  0.17854890  0.27173534    -0.21600
F517        F  0.31477953  0.19329496  0.30046079    -0.18800
F518        F  0.23248245  0.07817985  0.37345194    -0.18900
F519        F  0.25793086  0.10096813  0.40815193    -0.22700
F520        F  0.28033449  0.07008418  0.37745587    -0.24300
C521        C  0.69315897  0.55609754  0.57414141    -0.11100
C522        C  0.70967108  0.54864492  0.59854459     0.11500
C523        C  0.72732716  0.52345115  0.59770102    -0.02900
C524        C  0.72896876  0.50731216  0.57162287    -0.05700
C525        C  0.71356103  0.51557147  0.54652127    -0.16400
C526        C  0.69478568  0.54022410  0.54801702     0.02500
C527        C  0.70756470  0.56791234  0.62456335     0.12400
C528        C  0.74421117  0.51365901  0.62427058     0.63100
H529        H  0.74279652  0.48829646  0.57051667     0.12500
C530        C  0.67632542  0.55014692  0.52249523     0.55200
H531        H  0.67938024  0.57514346  0.57559926     0.08300
C532        C  0.72296270  0.59455427  0.62632960    -0.05600
C533        C  0.71796471  0.61299097  0.65027301    -0.06300
C534        C  0.69777425  0.60603134  0.67215657    -0.15900
C535        C  0.68215295  0.57933634  0.67023610    -0.01500
C536        C  0.68756700  0.56068260  0.64644319    -0.09000
C537        C  0.74404396  0.60386309  0.60262005     0.65300
H538        H  0.72944028  0.63351943  0.65177959     0.10700
C539        C  0.65872965  0.57113456  0.69211404     0.63700
H540        H  0.67556935  0.54052222  0.64420229     0.08100
F541        F  0.69394341  0.56292268  0.50174415    -0.19400
F542        F  0.65570157  0.57048897  0.53078347    -0.15600
F543        F  0.66163164  0.52675360  0.51055223    -0.19100
F544        F  0.72502726  0.50673113  0.64636730    -0.22500
F545        F  0.76247006  0.53563891  0.63363032    -0.24000
F546        F  0.76107232  0.48938633  0.61850519    -0.18000
F547        F  0.64445621  0.54574206  0.68437623    -0.20400
F548        F  0.63818585  0.59304848  0.69383876    -0.21600
F549        F  0.67105675  0.56682606  0.71914825    -0.18800
F550        F  0.75791752  0.62971854  0.60942970    -0.18900
F551        F  0.72921319  0.60783167  0.57681975    -0.22700
F552        F  0.76513568  0.58282506  0.59867485    -0.24300
C553        C  0.73706066  0.52432971  0.39157881    -0.11100
C554        C  0.71518376  0.54544343  0.38920036     0.11500
C555        C  0.69498575  0.54926373  0.41213573    -0.02900
C556        C  0.69776867  0.53201101  0.43708317    -0.05700
C557        C  0.71997829  0.51127854  0.43995303    -0.16400
C558        C  0.74000582  0.50715959  0.41679237     0.02500
C559        C  0.71365663  0.56357925  0.36259334     0.12400
C560        C  0.67039790  0.57131502  0.41023369     0.63100
H561        H  0.68220196  0.53436020  0.45458697     0.12500
C562        C  0.76480036  0.48548246  0.41888375     0.55200
H563        H  0.75192595  0.52156486  0.37350700     0.08300
C564        C  0.73102658  0.58875173  0.35901794    -0.05600
C565        C  0.72466803  0.60779050  0.33596885    -0.06300
C566        C  0.70153414  0.60240989  0.31674887    -0.15900
C567        C  0.68570790  0.57590541  0.31905559    -0.01500
C568        C  0.69230209  0.55684697  0.34198987    -0.09000
C569        C  0.75567280  0.59573629  0.37985736     0.65300
H570        H  0.73698277  0.62772026  0.33354173     0.10700
C571        C  0.66199737  0.56748601  0.29759805     0.63700
H572        H  0.67979360  0.53709718  0.34493870     0.08100
F573        F  0.78371686  0.48773833  0.39554432    -0.19400
F574        F  0.75379434  0.45750188  0.41921083    -0.15600
F575        F  0.78057173  0.49039557  0.44400773    -0.19100
F576        F  0.65063701  0.56260866  0.38933229    -0.22500
F577        F  0.68126031  0.59840252  0.40297473    -0.24000
F578        F  0.65565943  0.57404927  0.43635876    -0.18000
F579        F  0.65363564  0.53873462  0.30086001    -0.20400
F580        F  0.67201415  0.57097920  0.26945406    -0.21600
F581        F  0.63763299  0.58459005  0.30187298    -0.18800
F582        F  0.76894388  0.62195499  0.37325944    -0.18900
F583        F  0.77655185  0.57416314  0.37831841    -0.22700
F584        F  0.74520763  0.59743129  0.40799478    -0.24300
C585        C  0.52572250  0.75090191  0.58808125    -0.11100
C586        C  0.52263263  0.73410518  0.61335272     0.11500
C587        C  0.49535193  0.72148219  0.61999962    -0.02900
C588        C  0.47227390  0.72517780  0.60034832    -0.05700
C589        C  0.47520471  0.74166380  0.57473693    -0.16400
C590        C  0.50237346  0.75509609  0.56858150     0.02500
C591        C  0.54820952  0.73020012  0.63277066     0.12400
C592        C  0.49050673  0.70448103  0.64794315     0.63100
H593        H  0.45141462  0.71526164  0.60505957     0.12500
C594        C  0.50655261  0.77461036  0.54233710     0.55200
H595        H  0.54670690  0.76077154  0.58382546     0.08300
C596        C  0.56931115  0.70839379  0.62760455    -0.05600
C597        C  0.59146222  0.70416413  0.64827619    -0.06300
C598        C  0.59289934  0.72077338  0.67388370    -0.15900
C599        C  0.57257350  0.74358319  0.67832321    -0.01500
C600        C  0.55065433  0.74804150  0.65739544    -0.09000
C601        C  0.56811206  0.68942907  0.60058057     0.65300
H602        H  0.60736475  0.68708478  0.64504965     0.10700
C603        C  0.57431284  0.76352625  0.70460463     0.63700
H604        H  0.53459542  0.76500002  0.66049435     0.08100
F605        F  0.50464703  0.75834507  0.51713687    -0.19400
F606        F  0.53347945  0.78816377  0.54257937    -0.15600
F607        F  0.48542230  0.79602262  0.54215339    -0.19100
F608        F  0.49496146  0.72240006  0.67165753    -0.22500
F609        F  0.50961484  0.68133566  0.64936437    -0.24000
F610        F  0.46247652  0.69355514  0.64981986    -0.18000
F611        F  0.55485503  0.78640976  0.70262335    -0.20400
F612        F  0.60204823  0.77506242  0.70675829    -0.21600
F613        F  0.56784869  0.74822375  0.72963071    -0.18800
F614        F  0.59042014  0.66921603  0.60001040    -0.18900
F615        F  0.57058052  0.70658491  0.57605809    -0.22700
F616        F  0.54199164  0.67452558  0.59959784    -0.24300
C617        C  0.57707575  0.56896850  0.81688982    -0.11100
C618        C  0.55213507  0.56630940  0.79955358     0.11500
C619        C  0.54634136  0.58747175  0.77801288    -0.02900
C620        C  0.56709269  0.60946302  0.77302048    -0.05700
C621        C  0.59331145  0.61071581  0.78869325    -0.16400
C622        C  0.59801740  0.59075775  0.81172467     0.02500
C623        C  0.53383568  0.53978449  0.80280814     0.12400
C624        C  0.51859435  0.58647954  0.76011224     0.63100
H625        H  0.56349464  0.62524754  0.75594887     0.12500
C626        C  0.62492842  0.59231179  0.83077845     0.55200
H627        H  0.58068525  0.55285684  0.83365819     0.08300
C628        C  0.54169362  0.51330715  0.78925908    -0.05600
C629        C  0.52325941  0.48911416  0.79239048    -0.06300
C630        C  0.49731071  0.49033044  0.80864015    -0.15900
C631        C  0.48978938  0.51687650  0.82280141    -0.01500
C632        C  0.50838772  0.54115049  0.81958854    -0.09000
C633        C  0.56947780  0.51064974  0.77144227     0.65300
H634        H  0.52897019  0.46891495  0.78173204     0.10700
C635        C  0.46286296  0.51972713  0.84180332     0.63700
H636        H  0.50313394  0.56161437  0.82999784     0.08100
F637        F  0.64911146  0.58382896  0.81503852    -0.19400
F638        F  0.62263963  0.57422906  0.85471244    -0.15600
F639        F  0.62882333  0.62042884  0.84077747    -0.19100
F640        F  0.49477456  0.58978582  0.77819373    -0.22500
F641        F  0.51642778  0.56015913  0.74573690    -0.24000
F642        F  0.51779002  0.60840204  0.73952909    -0.18000
F643        F  0.46218045  0.54605480  0.85642448    -0.20400
F644        F  0.46247322  0.49780324  0.86235913    -0.21600
F645        F  0.43808629  0.51809975  0.82487692    -0.18800
F646        F  0.57226262  0.48341498  0.75891424    -0.18900
F647        F  0.59339871  0.51519286  0.78905909    -0.22700
F648        F  0.56956980  0.53101463  0.74936766    -0.24300
C649        C  0.26931590  0.75012384  0.62524804    -0.11100
C650        C  0.29786870  0.74184990  0.63179666     0.11500
C651        C  0.30403799  0.72866046  0.65881858    -0.02900
C652        C  0.28085924  0.72263485  0.67785671    -0.05700
C653        C  0.25178589  0.72951612  0.67093281    -0.16400
C654        C  0.24593434  0.74400617  0.64416136     0.02500
C655        C  0.32081665  0.74587885  0.60938853     0.12400
C656        C  0.33504864  0.72107907  0.66750025     0.63100
H657        H  0.28540123  0.71193101  0.69829231     0.12500
C658        C  0.21541479  0.75286735  0.63505769     0.55200
H659        H  0.26541774  0.76058906  0.60453460     0.08300
C660        C  0.32539152  0.72505440  0.58713754    -0.05600
C661        C  0.34979650  0.72812306  0.56887858    -0.06300
C662        C  0.36953143  0.75110836  0.57248754    -0.15900
C663        C  0.36368428  0.77311953  0.59326290    -0.01500
C664        C  0.33915444  0.77017104  0.61137396    -0.09000
C665        C  0.30509756  0.69922282  0.58341574     0.65300
H666        H  0.35447987  0.71177572  0.55258419     0.10700
C667        C  0.38330457  0.79951988  0.59635902     0.63700
H668        H  0.33478923  0.78617319  0.62809413     0.08100
F669        F  0.19907969  0.72832454  0.62900863    -0.19400
F670        F  0.21564381  0.77002172  0.61034294    -0.15600
F671        F  0.20225010  0.76871875  0.65699301    -0.19100
F672        F  0.35135966  0.74625502  0.66968882    -0.22500
F673        F  0.34755888  0.70304732  0.64693722    -0.24000
F674        F  0.33612680  0.70697820  0.69404327    -0.18000
F675        F  0.37064164  0.82079841  0.61349995    -0.20400
F676        F  0.38876237  0.81146116  0.56930268    -0.21600
F677        F  0.40934319  0.79153755  0.60906151    -0.18800
F678        F  0.31328963  0.68178104  0.56028475    -0.18900
F679        F  0.27709002  0.70885848  0.57826010    -0.22700
F680        F  0.30522725  0.68240466  0.60830082    -0.24300
C681        C  0.14103899  0.52483970  0.40522294    -0.11100
C682        C  0.12293697  0.54933115  0.40376307     0.11500
C683        C  0.10109231  0.55352748  0.42503838    -0.02900
C684        C  0.09927517  0.53372259  0.44822632    -0.05700
C685        C  0.11835307  0.50996269  0.45060682    -0.16400
C686        C  0.13938156  0.50508206  0.42854258     0.02500
C687        C  0.12803927  0.57065151  0.38008905     0.12400
C688        C  0.08011672  0.57901648  0.42346183     0.63100
H689        H  0.08327429  0.53703043  0.46521171     0.12500
C690        C  0.16091048  0.48011949  0.43023245     0.55200
H691        H  0.15717057  0.52190434  0.38829973     0.08300
C692        C  0.14964207  0.59248988  0.38238877    -0.05600
C693        C  0.15320076  0.61209620  0.35924249    -0.06300
C694        C  0.13673187  0.60988660  0.33361652    -0.15900
C695        C  0.11557948  0.58750133  0.33107159    -0.01500
C696        C  0.11149802  0.56832577  0.35460849    -0.09000
C697        C  0.16924792  0.59471014  0.40891164     0.65300
H698        H  0.16954886  0.62900773  0.36068063     0.10700
C699        C  0.09719110  0.58391309  0.30392259     0.63700
H700        H  0.09554223  0.55102864  0.35322855     0.08100
F701        F  0.18119528  0.48119416  0.40797669    -0.19400
F702        F  0.14623991  0.45394714  0.42814931    -0.15600
F703        F  0.17582323  0.48124493  0.45631099    -0.19100
F704        F  0.06406633  0.57735157  0.39813121    -0.22500
F705        F  0.09532199  0.60495243  0.42378202    -0.24000
F706        F  0.06086393  0.57922884  0.44663876    -0.18000
F707        F  0.11447401  0.57431380  0.28124931    -0.20400
F708        F  0.08456113  0.61016915  0.29651694    -0.21600
F709        F  0.07506267  0.56384465  0.30792438    -0.18800
F710        F  0.18809002  0.61815419  0.40708260    -0.18900
F711        F  0.18580437  0.56975613  0.41137448    -0.22700
F712        F  0.15270048  0.59803278  0.43378573    -0.24300
C713        C  0.14090697  0.52873938  0.60132195    -0.11100
C714        C  0.12213430  0.55272641  0.60240730     0.11500
C715        C  0.10058603  0.55632570  0.58079512    -0.02900
C716        C  0.09908534  0.53591937  0.55814336    -0.05700
C717        C  0.11833830  0.51228322  0.55652780    -0.16400
C718        C  0.13925677  0.50810167  0.57879513     0.02500
C719        C  0.12741453  0.57515171  0.62489726     0.12400
C720        C  0.08000525  0.58216812  0.58105016     0.63100
H721        H  0.08335216  0.53879063  0.54085464     0.12500
C722        C  0.16050522  0.48281455  0.57827271     0.55200
H723        H  0.15742099  0.52678589  0.61799195     0.08300
C724        C  0.11747389  0.57218929  0.65380588    -0.05600
C725        C  0.12353440  0.59462335  0.67371632    -0.06300
C726        C  0.13989317  0.61928492  0.66577077    -0.15900
C727        C  0.15068127  0.62158063  0.63682622    -0.01500
C728        C  0.14391285  0.59943654  0.61689868    -0.09000
C729        C  0.10117929  0.54516945  0.66363518     0.65300
H730        H  0.11588090  0.59280491  0.69590679     0.10700
C731        C  0.17026723  0.64641165  0.62698530     0.63700
H732        H  0.15173352  0.60066675  0.59470980     0.08100
F733        F  0.14544635  0.45692045  0.58093400    -0.19400
F734        F  0.18031349  0.48431780  0.60088586    -0.15600
F735        F  0.17596580  0.48284825  0.55245819    -0.19100
F736        F  0.09542375  0.60744054  0.57580389    -0.22500
F737        F  0.06635263  0.58434070  0.60774227    -0.24000
F738        F  0.05864361  0.57962548  0.55999662    -0.18000
F739        F  0.18113060  0.64191994  0.59926101    -0.20400
F740        F  0.19378629  0.64897334  0.64557819    -0.21600
F741        F  0.15474821  0.67215980  0.62664665    -0.18800
F742        F  0.09222047  0.54727601  0.69229279    -0.18900
F743        F  0.11909937  0.52115951  0.66121134    -0.22700
F744        F  0.07678955  0.54093483  0.64659125    -0.24300
C745        C  0.57238608  0.31602596  0.77215426    -0.11100
C746        C  0.55040497  0.31032838  0.79245851     0.11500
C747        C  0.54809281  0.28229796  0.80494556    -0.02900
C748        C  0.56940116  0.26128893  0.79800916    -0.05700
C749        C  0.59166678  0.26709570  0.77783440    -0.16400
C750        C  0.59296645  0.29483190  0.76428895     0.02500
C751        C  0.52993219  0.33440224  0.79934278     0.12400
C752        C  0.52279973  0.27448286  0.82473573     0.63100
H753        H  0.56833974  0.23983702  0.80762497     0.12500
C754        C  0.61619665  0.30240647  0.74196018     0.55200
H755        H  0.57311428  0.33741235  0.76234917     0.08300
C756        C  0.53704206  0.35622080  0.81984535    -0.05600
C757        C  0.51827204  0.38016625  0.82299777    -0.06300
C758        C  0.49334117  0.38353134  0.80565993    -0.15900
C759        C  0.48635364  0.36171929  0.78489301    -0.01500
C760        C  0.50477400  0.33732030  0.78235542    -0.09000
C761        C  0.56514010  0.35499773  0.83720283     0.65300
H762        H  0.52356032  0.39718155  0.83841332     0.10700
C763        C  0.46064987  0.36477797  0.76437350     0.63700
H764        H  0.50026889  0.32066620  0.76631095     0.08100
F765        F  0.61558640  0.33157781  0.73457477    -0.19400
F766        F  0.61177415  0.28654081  0.71681130    -0.15600
F767        F  0.64349956  0.29629480  0.75300742    -0.19100
F768        F  0.49684780  0.27832454  0.81005502    -0.22500
F769        F  0.52287318  0.29203942  0.84910700    -0.24000
F770        F  0.52413610  0.24581745  0.83378945    -0.18000
F771        F  0.46022753  0.34299466  0.74357641    -0.20400
F772        F  0.46213430  0.39115498  0.75000871    -0.21600
F773        F  0.43491862  0.36320899  0.77989433    -0.18800
F774        F  0.56706443  0.37756870  0.85703728    -0.18900
F775        F  0.58868888  0.35695827  0.81858392    -0.22700
F776        F  0.56682289  0.32916636  0.85238906    -0.24300
C777        C  0.49817726  0.15910133  0.61090317    -0.11100
C778        C  0.51933636  0.13716210  0.60996663     0.11500
C779        C  0.51512880  0.11275083  0.59162057    -0.02900
C780        C  0.48926754  0.11087497  0.57522219    -0.05700
C781        C  0.46776715  0.13247276  0.57687663    -0.16400
C782        C  0.47270016  0.15756230  0.59408857     0.02500
C783        C  0.54524764  0.14043630  0.62910515     0.12400
C784        C  0.53752162  0.08856660  0.58986500     0.63100
H785        H  0.48517366  0.09202335  0.56169414     0.12500
C786        C  0.45171076  0.18308773  0.59391058     0.55200
H787        H  0.50180422  0.17755129  0.62510947     0.08300
C788        C  0.56801391  0.16013811  0.62249167    -0.05600
C789        C  0.59010184  0.16463973  0.64317645    -0.06300
C790        C  0.59022752  0.15005801  0.66999490    -0.15900
C791        C  0.56789925  0.12967872  0.67625957    -0.01500
C792        C  0.54559928  0.12539405  0.65564609    -0.09000
C793        C  0.56881337  0.17661108  0.59387013     0.65300
H794        H  0.60730975  0.18014240  0.63878916     0.10700
C795        C  0.56684410  0.11356782  0.70504218     0.63700
H796        H  0.52773608  0.11076668  0.66037901     0.08100
F797        F  0.46335323  0.20718425  0.60773503    -0.19400
F798        F  0.42619495  0.17567704  0.60800917    -0.15600
F799        F  0.44550407  0.19088927  0.56554840    -0.19100
F800        F  0.53906510  0.07432056  0.61624080    -0.22500
F801        F  0.56457993  0.09991860  0.58321850    -0.24000
F802        F  0.53049770  0.06835248  0.56868248    -0.18000
F803        F  0.56693554  0.13326436  0.72779141    -0.20400
F804        F  0.59074218  0.09547149  0.70738263    -0.21600
F805        F  0.54208255  0.09658062  0.70756019    -0.18800
F806        F  0.59391278  0.19305727  0.59107311    -0.18900
F807        F  0.54530532  0.19522876  0.59204887    -0.22700
F808        F  0.56783269  0.15726499  0.57089479    -0.24300
C809        C  0.73835203  0.31138388  0.42007663    -0.11100
C810        C  0.72029339  0.32068208  0.39741689     0.11500
C811        C  0.70852509  0.34913524  0.39830024    -0.02900
C812        C  0.71394109  0.36679015  0.42282053    -0.05700
C813        C  0.73054301  0.35686760  0.44650503    -0.16400
C814        C  0.74426816  0.32914895  0.44437115     0.02500
C815        C  0.71212612  0.29933369  0.37430879     0.12400
C816        C  0.68945259  0.36041823  0.37386044     0.63100
H817        H  0.70386315  0.38800462  0.42427629     0.12500
C818        C  0.76521463  0.31798972  0.46731474     0.55200
H819        H  0.74711296  0.28955382  0.41904003     0.08300
C820        C  0.73066472  0.29225299  0.35075232    -0.05600
C821        C  0.72075920  0.27233052  0.32958513    -0.06300
C822        C  0.69316685  0.25900160  0.33137575    -0.15900
C823        C  0.67501763  0.26556889  0.35566423    -0.01500
C824        C  0.68500156  0.28558504  0.37663890    -0.09000
C825        C  0.76091408  0.30535259  0.34821697     0.65300
H826        H  0.73466890  0.26698464  0.31135192     0.10700
C827        C  0.64544796  0.25133781  0.36010528     0.63700
H828        H  0.67151021  0.29096561  0.39518323     0.08100
F829        F  0.78184295  0.29512518  0.45690223    -0.19400
F830        F  0.74985303  0.30816010  0.49120825    -0.15600
F831        F  0.78414374  0.33987349  0.47564899    -0.19100
F832        F  0.66344961  0.34530220  0.37341840    -0.22500
F833        F  0.70338334  0.35684615  0.34745068    -0.24000
F834        F  0.68323772  0.38968301  0.37716865    -0.18000
F835        F  0.63365743  0.25793913  0.38701786    -0.20400
F836        F  0.64806910  0.22141259  0.35841029    -0.21600
F837        F  0.62620154  0.26103258  0.33916471    -0.18800
F838        F  0.77436495  0.29767172  0.32238567    -0.18900
F839        F  0.77805362  0.29559488  0.37085537    -0.22700
F840        F  0.75937613  0.33534639  0.34931589    -0.24300
C841        C  0.70377362  0.34806108  0.59805014    -0.11100
C842        C  0.72303175  0.32466597  0.60153868     0.11500
C843        C  0.74574589  0.32044167  0.58115342    -0.02900
C844        C  0.74784484  0.33946365  0.55733275    -0.05700
C845        C  0.72799256  0.36227771  0.55318304    -0.16400
C846        C  0.70598424  0.36727708  0.57429678     0.02500
C847        C  0.71689312  0.30323171  0.62494596     0.12400
C848        C  0.76710159  0.29539983  0.58399356     0.63100
H849        H  0.76462188  0.33611853  0.54111850     0.12500
C850        C  0.68436845  0.39209057  0.57145357     0.55200
H851        H  0.68646251  0.35067342  0.61383620     0.08300
C852        C  0.72526154  0.30769046  0.65423247    -0.05600
C853        C  0.71818182  0.28625264  0.67499360    -0.06300
C854        C  0.70207606  0.26141322  0.66744365    -0.15900
C855        C  0.69341574  0.25720334  0.63814654    -0.01500
C856        C  0.70110764  0.27826408  0.61738608    -0.09000
C857        C  0.74080375  0.33529451  0.66358210     0.65300
H858        H  0.72424160  0.28921520  0.69753703     0.10700
C859        C  0.67649000  0.23040471  0.62866329     0.63700
H860        H  0.69448964  0.27564543  0.59494953     0.08100
F861        F  0.69880662  0.41833142  0.57431974    -0.19400
F862        F  0.66297631  0.39091383  0.59264491    -0.15600
F863        F  0.67078300  0.39096560  0.54466378    -0.19100
F864        F  0.75259446  0.26924373  0.58099273    -0.22500
F865        F  0.78040788  0.29623417  0.61088946    -0.24000
F866        F  0.78868032  0.29658040  0.56299045    -0.18000
F867        F  0.67411644  0.22866563  0.59871658    -0.20400
F868        F  0.64866125  0.23123317  0.64009357    -0.21600
F869        F  0.69047408  0.20556807  0.63822118    -0.18800
F870        F  0.74816860  0.33465725  0.69273844    -0.18900
F871        F  0.72289478  0.35899099  0.65905359    -0.22700
F872        F  0.76607613  0.33890455  0.64768637    -0.24300
C873        C  0.26898408  0.12107641  0.64496254    -0.11100
C874        C  0.29481515  0.13734382  0.64506243     0.11500
C875        C  0.29850569  0.15997189  0.66563777    -0.02900
C876        C  0.27554677  0.16623813  0.68483410    -0.05700
C877        C  0.24957764  0.15010600  0.68475743    -0.16400
C878        C  0.24642411  0.12656167  0.66501645     0.02500
C879        C  0.31712237  0.13129100  0.62243756     0.12400
C880        C  0.32653938  0.17748876  0.66732639     0.63100
H881        H  0.27773738  0.18393047  0.70023893     0.12500
C882        C  0.21931722  0.10764185  0.66464555     0.55200
H883        H  0.26666940  0.10401270  0.62890611     0.08300
C884        C  0.33722168  0.10810131  0.62478394    -0.05600
C885        C  0.35941526  0.10568734  0.60375300    -0.06300
C886        C  0.36184865  0.12548832  0.58061781    -0.15900
C887        C  0.34110156  0.14808422  0.57787646    -0.01500
C888        C  0.31867106  0.15019093  0.59861241    -0.09000
C889        C  0.33559448  0.08648172  0.64969128     0.65300
H890        H  0.37564287  0.08872764  0.60563908     0.10700
C891        C  0.34353259  0.17082058  0.55418452     0.63700
H892        H  0.30271685  0.16744561  0.59711940     0.08100
F893        F  0.21739697  0.09220468  0.69035289    -0.19400
F894        F  0.21980857  0.08775334  0.64204676    -0.15600
F895        F  0.19480697  0.12478470  0.66142463    -0.19100
F896        F  0.32995592  0.19387433  0.64240656    -0.22500
F897        F  0.35007567  0.15901528  0.67020271    -0.24000
F898        F  0.32661266  0.19625752  0.69088144    -0.18000
F899        F  0.34084754  0.15764707  0.52741111    -0.20400
F900        F  0.37024980  0.18459356  0.55589674    -0.21600
F901        F  0.32201817  0.19177418  0.55643551    -0.18800
F902        F  0.35777729  0.06616782  0.64831987    -0.18900
F903        F  0.30941515  0.07169622  0.64871444    -0.22700
F904        F  0.33773100  0.10087901  0.67598803    -0.24300
C905        C  0.11453301  0.27756885  0.37801658    -0.11100
C906        C  0.13279125  0.30197182  0.37938085     0.11500
C907        C  0.15489530  0.30576091  0.35831152    -0.02900
C908        C  0.15718361  0.28530979  0.33570515    -0.05700
C909        C  0.13893891  0.26074697  0.33418320    -0.16400
C910        C  0.11739133  0.25655716  0.35591542     0.02500
C911        C  0.13016667  0.32139480  0.40498468     0.12400
C912        C  0.17654494  0.33072811  0.36024144     0.63100
H913        H  0.17384550  0.28801704  0.31927415     0.12500
C914        C  0.09848553  0.22947776  0.35677397     0.55200
H915        H  0.09840086  0.27479973  0.39497532     0.08300
C916        C  0.10918379  0.34384497  0.40674852    -0.05600
C917        C  0.10762031  0.36053363  0.43240483    -0.06300
C918        C  0.12578811  0.35480818  0.45627197    -0.15900
C919        C  0.14706115  0.33250611  0.45418976    -0.01500
C920        C  0.14857958  0.31599584  0.42856489    -0.09000
C921        C  0.08822662  0.34963860  0.38191870     0.65300
H922        H  0.09159199  0.37767896  0.43436148     0.10700
C923        C  0.16856363  0.32632070  0.47850032     0.63700
H924        H  0.16408391  0.29834695  0.42676437     0.08100
F925        F  0.08220986  0.22793583  0.38207524    -0.19400
F926        F  0.11577972  0.20489107  0.35544777    -0.15600
F927        F  0.07944195  0.22960984  0.33354426    -0.19100
F928        F  0.19294269  0.32812193  0.38526755    -0.22500
F929        F  0.16199630  0.35700152  0.36080759    -0.24000
F930        F  0.19549994  0.33104287  0.33682759    -0.18000
F931        F  0.15444099  0.31293339  0.50141506    -0.20400
F932        F  0.18114049  0.35197685  0.48797402    -0.21600
F933        F  0.19076946  0.30810941  0.46939675    -0.18800
F934        F  0.07008785  0.37295040  0.38777609    -0.18900
F935        F  0.07101423  0.32542165  0.37725152    -0.22700
F936        F  0.10352290  0.35578174  0.35678634    -0.24300
C937        C  0.14205141  0.34365323  0.60697630    -0.11100
C938        C  0.11965838  0.32357616  0.61203788     0.11500
C939        C  0.09542924  0.32269471  0.59313964    -0.02900
C940        C  0.09549912  0.34071613  0.56840358    -0.05700
C941        C  0.11883773  0.35951950  0.56229540    -0.16400
C942        C  0.14260260  0.36117365  0.58196596     0.02500
C943        C  0.12403443  0.30154420  0.63524142     0.12400
C944        C  0.06983665  0.30264161  0.59907528     0.63100
H945        H  0.07753069  0.33982149  0.55320332     0.12500
C946        C  0.16996341  0.37920728  0.57724438     0.55200
H947        H  0.16039217  0.34418043  0.62179512     0.08300
C948        C  0.14120621  0.27648962  0.63012557    -0.05600
C949        C  0.14580856  0.25693045  0.65306813    -0.06300
C950        C  0.13411283  0.26166659  0.68084676    -0.15900
C951        C  0.11665925  0.28659238  0.68596959    -0.01500
C952        C  0.11191541  0.30624428  0.66288066    -0.09000
C953        C  0.15522677  0.27075763  0.60069935     0.65300
H954        H  0.15920662  0.23785865  0.64964524     0.10700
C955        C  0.10423071  0.29302028  0.71586755     0.63700
H956        H  0.09909478  0.32569958  0.66629358     0.08100
F957        F  0.19394847  0.36103207  0.57761727    -0.19400
F958        F  0.17261224  0.39912295  0.59962420    -0.15600
F959        F  0.17043378  0.39415573  0.55127097    -0.19100
F960        F  0.05716920  0.31006672  0.62531477    -0.22500
F961        F  0.07905920  0.27407017  0.60037291    -0.24000
F962        F  0.04879486  0.30463487  0.57766352    -0.18000
F963        F  0.08986555  0.31946372  0.71664953    -0.20400
F964        F  0.12646719  0.29392524  0.73609746    -0.21600
F965        F  0.08457081  0.27159060  0.72356539    -0.18800
F966        F  0.16962948  0.24433951  0.60003405    -0.18900
F967        F  0.17526839  0.29231860  0.59456055    -0.22700
F968        F  0.13428129  0.27033746  0.57917105    -0.24300
C969        C  0.32602786  0.33571466  0.21132979    -0.11100
C970        C  0.30004528  0.33549345  0.19533527     0.11500
C971        C  0.29376742  0.35883039  0.17635194    -0.02900
C972        C  0.31364520  0.38206088  0.17447771    -0.05700
C973        C  0.33928589  0.38286822  0.19114616    -0.16400
C974        C  0.34593322  0.35902923  0.20957177     0.02500
C975        C  0.27846900  0.31207228  0.20124948     0.12400
C976        C  0.26558747  0.35978975  0.15910658     0.63100
H977        H  0.30871659  0.40048669  0.16070638     0.12500
C978        C  0.37308663  0.35869567  0.22834993     0.55200
H979        H  0.33010688  0.31775963  0.22596317     0.08300
C980        C  0.27996126  0.28429542  0.18800072    -0.05600
C981        C  0.25856089  0.26342320  0.19498302    -0.06300
C982        C  0.23691449  0.26909602  0.21577434    -0.15900
C983        C  0.23575507  0.29680002  0.22937357    -0.01500
C984        C  0.25650573  0.31790548  0.22159658    -0.09000
C985        C  0.30461771  0.27644214  0.16747092     0.65300
H986        H  0.25933762  0.24199271  0.18523653     0.10700
C987        C  0.21273370  0.30419118  0.25197660     0.63700
H988        H  0.25617232  0.33912308  0.23183211     0.08100
F989        F  0.39754991  0.35791279  0.21083856    -0.19400
F990        F  0.37391836  0.33464739  0.24640474    -0.15600
F991        F  0.37389862  0.38329095  0.24566941    -0.19100
F992        F  0.24224262  0.36267446  0.17785857    -0.22500
F993        F  0.26226502  0.33451031  0.14319525    -0.24000
F994        F  0.26507660  0.38292450  0.13988914    -0.18000
F995        F  0.21801756  0.28890200  0.27727331    -0.20400
F996        F  0.18538561  0.29710627  0.24158725    -0.21600
F997        F  0.21272392  0.33352738  0.25877882    -0.18800
F998        F  0.30138869  0.24869506  0.15622181    -0.18900
F999        F  0.33078412  0.27754357  0.18222474    -0.22700
F1000       F  0.30557606  0.29574169  0.14450499    -0.24300
C1001       C  0.29860092  0.51594582  0.22387979    -0.11100
C1002       C  0.30338092  0.53957445  0.20532894     0.11500
C1003       C  0.32709097  0.53896137  0.18565227    -0.02900
C1004       C  0.34386198  0.51334229  0.18354098    -0.05700
C1005       C  0.33775240  0.48883991  0.20076011    -0.16400
C1006       C  0.31539295  0.49049886  0.22207009     0.02500
C1007       C  0.28331213  0.56479239  0.20790176     0.12400
C1008       C  0.33453477  0.56522660  0.16710077     0.63100
H1009       H  0.36153217  0.51204116  0.16800597     0.12500
C1010       C  0.30945522  0.46589994  0.24333671     0.55200
H1011       H  0.28101163  0.51743282  0.23950701     0.08300
C1012       C  0.25498600  0.56433126  0.19580621    -0.05600
C1013       C  0.23595687  0.58754010  0.20193245    -0.06300
C1014       C  0.24439605  0.61112433  0.21950293    -0.15900
C1015       C  0.27319808  0.61187320  0.23088599    -0.01500
C1016       C  0.29195925  0.58836145  0.22512284    -0.09000
C1017       C  0.24482979  0.53923397  0.17681515     0.65300
H1018       H  0.21401543  0.58722403  0.19333976     0.10700
C1019       C  0.28403157  0.63671261  0.24984082     0.63700
H1020       H  0.31356346  0.58784650  0.23450808     0.08100
F1021       F  0.29595479  0.44306683  0.22917359    -0.19400
F1022       F  0.29143153  0.47468539  0.26582145    -0.15600
F1023       F  0.33528932  0.45639248  0.25547966    -0.19100
F1024       F  0.34160991  0.58850297  0.18476617    -0.22500
F1025       F  0.31098220  0.57269638  0.15001481    -0.24000
F1026       F  0.35801843  0.55989882  0.14899551    -0.18000
F1027       F  0.31165555  0.63147906  0.26062679    -0.20400
F1028       F  0.26556233  0.64059214  0.27329355    -0.21600
F1029       F  0.28527839  0.66200437  0.23365523    -0.18800
F1030       F  0.21702568  0.54373615  0.16616893    -0.18900
F1031       F  0.24455967  0.51371951  0.19264937    -0.22700
F1032       F  0.26340648  0.53603756  0.15337998    -0.24300
C1033       C  0.29464026  0.36374591  0.79146064    -0.11100
C1034       C  0.30474690  0.33859580  0.80510686     0.11500
C1035       C  0.33202423  0.33889133  0.81930755    -0.02900
C1036       C  0.34795408  0.36510934  0.82018157    -0.05700
C1037       C  0.33753225  0.39076597  0.80713564    -0.16400
C1038       C  0.31028275  0.38998648  0.79222258     0.02500
C1039       C  0.28649522  0.31205611  0.80245208     0.12400
C1040       C  0.34427759  0.31156917  0.83314922     0.63100
H1041       H  0.36875747  0.36573822  0.83118547     0.12500
C1042       C  0.29749541  0.41617785  0.77653705     0.55200
H1043       H  0.27399199  0.36253952  0.78018663     0.08300
C1044       C  0.26099380  0.30795347  0.81928795    -0.05600
C1045       C  0.24277064  0.28413775  0.81295895    -0.06300
C1046       C  0.24870014  0.26520234  0.78971999    -0.15900
C1047       C  0.27476188  0.26894490  0.77338896    -0.01500
C1048       C  0.29315831  0.29244925  0.78013344    -0.09000
C1049       C  0.25245405  0.32933225  0.84299538     0.65300
H1050       H  0.22285274  0.28104195  0.82517388     0.10700
C1051       C  0.28339303  0.24842288  0.74891159     0.63700
H1052       H  0.31245169  0.29645854  0.76719167     0.08100
F1053       F  0.28856356  0.43676699  0.79657684    -0.19400
F1054       F  0.27345254  0.40878387  0.75997019    -0.15600
F1055       F  0.31796174  0.42809346  0.75795142    -0.19100
F1056       F  0.34927764  0.29081433  0.81198495    -0.22500
F1057       F  0.32476777  0.30059678  0.85323571    -0.24000
F1058       F  0.37032168  0.31690086  0.84729460    -0.18000
F1059       F  0.26560195  0.25280566  0.72510621    -0.20400
F1060       F  0.28103242  0.21987784  0.75807903    -0.21600
F1061       F  0.31186913  0.25290069  0.74007146    -0.18800
F1062       F  0.22843775  0.31984309  0.85852542    -0.18900
F1063       F  0.24566835  0.35591529  0.83077886    -0.22700
F1064       F  0.27520077  0.33295819  0.86229145    -0.24300
C1065       C  0.26306014  0.56295744  0.77463913    -0.11100
C1066       C  0.28762086  0.56974992  0.79121000     0.11500
C1067       C  0.29273622  0.59879917  0.79984983    -0.02900
C1068       C  0.27168575  0.62001776  0.79315774    -0.05700
C1069       C  0.24634942  0.61312682  0.77737669    -0.16400
C1070       C  0.24235352  0.58410208  0.76717278     0.02500
C1071       C  0.30789127  0.54569492  0.79817682     0.12400
C1072       C  0.32057605  0.60729804  0.81545903     0.63100
H1073       H  0.27497507  0.64226915  0.80013370     0.12500
C1074       C  0.21707525  0.57524011  0.74768385     0.55200
H1075       H  0.26026243  0.54062853  0.76763860     0.08300
C1076       C  0.30253372  0.52640008  0.82152241    -0.05600
C1077       C  0.32118120  0.50249038  0.82528752    -0.06300
C1078       C  0.34421149  0.49691465  0.80601034    -0.15900
C1079       C  0.34919085  0.51593505  0.78227763    -0.01500
C1080       C  0.33101760  0.54033026  0.77901359    -0.09000
C1081       C  0.27649307  0.53033509  0.84154619     0.65300
H1082       H  0.31721581  0.48717895  0.84272174     0.10700
C1083       C  0.37236574  0.50963271  0.75955622     0.63700
H1084       H  0.33404781  0.55497496  0.76084266     0.08100
F1085       F  0.19133264  0.57579073  0.76328411    -0.19400
F1086       F  0.22047827  0.54738783  0.73675140    -0.15600
F1087       F  0.21518007  0.59395006  0.72422193    -0.19100
F1088       F  0.34425632  0.60136010  0.79786607    -0.22500
F1089       F  0.32323273  0.59175389  0.84099914    -0.24000
F1090       F  0.32115202  0.63662277  0.82224877    -0.18000
F1091       F  0.37114891  0.52902822  0.73659806    -0.20400
F1092       F  0.36853034  0.48193420  0.74841400    -0.21600
F1093       F  0.39966073  0.51172918  0.77197083    -0.18800
F1094       F  0.27620162  0.50998376  0.86369380    -0.18900
F1095       F  0.25101492  0.52727367  0.82588487    -0.22700
F1096       F  0.27710051  0.55765221  0.85405100    -0.24300
C1097       C  0.79279124  0.21835981  0.16081415    -0.11100
C1098       C  0.78547097  0.23460163  0.13620731     0.11500
C1099       C  0.75643079  0.24389509  0.13220684    -0.02900
C1100       C  0.73559962  0.23684576  0.15358913    -0.05700
C1101       C  0.74287096  0.22071386  0.17857113    -0.16400
C1102       C  0.77223814  0.21140518  0.18235561     0.02500
C1103       C  0.80899422  0.24009565  0.11472815     0.12400
C1104       C  0.74732327  0.26043730  0.10516906     0.63100
H1105       H  0.71322056  0.24359542  0.15067817     0.12500
C1106       C  0.78220261  0.19362510  0.20840053     0.55200
H1107       H  0.81512552  0.21112318  0.16291538     0.08300
C1108       C  0.83165148  0.26021574  0.12028027    -0.05600
C1109       C  0.85619157  0.26014635  0.10200350    -0.06300
C1110       C  0.85846031  0.24118153  0.07816637    -0.15900
C1111       C  0.83467690  0.22258051  0.07133187    -0.01500
C1112       C  0.81055325  0.22202285  0.09024076    -0.09000
C1113       C  0.83000057  0.28152388  0.14550314     0.65300
H1114       H  0.87415836  0.27468148  0.10652009     0.10700
C1115       C  0.83488642  0.20270078  0.04491204     0.63700
H1116       H  0.79299081  0.20674220  0.08660890     0.08100
F1117       F  0.77987727  0.21009467  0.23345637    -0.19400
F1118       F  0.81098240  0.18501443  0.20590137    -0.15600
F1119       F  0.76543015  0.16875782  0.21091261    -0.19100
F1120       F  0.74880269  0.24226526  0.08127592    -0.22500
F1121       F  0.76550044  0.28398399  0.10073878    -0.24000
F1122       F  0.71910698  0.27076214  0.10740080    -0.18000
F1123       F  0.81068061  0.18476662  0.04409893    -0.20400
F1124       F  0.85933829  0.18517809  0.04529148    -0.21600
F1125       F  0.83478037  0.21927031  0.01984646    -0.18800
F1126       F  0.85329117  0.30064898  0.14554771    -0.18900
F1127       F  0.83012251  0.26675836  0.17162845    -0.22700
F1128       F  0.80472791  0.29768002  0.14352161    -0.24300
C1129       C  0.03203440  0.21328699  0.16547530    -0.11100
C1130       C  0.03864933  0.22774448  0.13954190     0.11500
C1131       C  0.06686226  0.23931315  0.13533895    -0.02900
C1132       C  0.08827337  0.23410684  0.15663244    -0.05700
C1133       C  0.08207418  0.21865953  0.18233978    -0.16400
C1134       C  0.05312938  0.20843981  0.18709880     0.02500
C1135       C  0.01493642  0.23101727  0.11778337     0.12400
C1136       C  0.07409456  0.25748031  0.10875198     0.63100
H1137       H  0.11012768  0.24233129  0.15341431     0.12500
C1138       C  0.04428692  0.19181070  0.21430295     0.55200
H1139       H  0.00995860  0.20554575  0.16844385     0.08300
C1140       C  0.00677037  0.20806114  0.09885633    -0.05600
C1141       C  0.98214510  0.21172853  0.08096707    -0.06300
C1142       C  0.96534978  0.23718939  0.08198891    -0.15900
C1143       C  0.97408680  0.26041747  0.10025862    -0.01500
C1144       C  0.99872597  0.25681419  0.11803822    -0.09000
C1145       C  0.02373871  0.17970959  0.09789156     0.65300
H1146       H  0.97519741  0.19432397  0.06670352     0.10700
C1147       C  0.95764991  0.28900101  0.10076374     0.63700
H1148       H  0.00513867  0.27388524  0.13293863     0.08100
F1149       F  0.01584073  0.18193769  0.21286778    -0.19400
F1150       F  0.04640452  0.20977229  0.23833618    -0.15600
F1151       F  0.06206208  0.16781544  0.21787978    -0.19100
F1152       F  0.05777184  0.28271528  0.10913199    -0.22500
F1153       F  0.06786314  0.24212211  0.08369009    -0.24000
F1154       F  0.10321424  0.26520814  0.10795905    -0.18000
F1155       F  0.93043777  0.28493031  0.11288130    -0.20400
F1156       F  0.95464288  0.29943860  0.07274331    -0.21600
F1157       F  0.97204867  0.30991300  0.11696314    -0.18800
F1158       F  0.01238365  0.16050524  0.07766834    -0.18900
F1159       F  0.02290971  0.16630955  0.12474791    -0.22700
F1160       F  0.05239050  0.18516611  0.09050391    -0.24300
C1161       C  0.83920813  0.61237308  0.87910232    -0.11100
C1162       C  0.81909713  0.63424195  0.88590757     0.11500
C1163       C  0.82322134  0.65134451  0.91118704    -0.02900
C1164       C  0.84880589  0.64744467  0.92760420    -0.05700
C1165       C  0.87024152  0.62729347  0.91931038    -0.16400
C1166       C  0.86498360  0.60871532  0.89520249     0.02500
C1167       C  0.79568791  0.64056024  0.86445494     0.12400
C1168       C  0.80090653  0.67386709  0.92045884     0.63100
H1169       H  0.85284116  0.66101366  0.94641356     0.12500
C1170       C  0.88650861  0.58537092  0.88607736     0.55200
H1171       H  0.83531178  0.59924677  0.85994417     0.08300
C1172       C  0.80125757  0.65790077  0.83961720    -0.05600
C1173       C  0.77844705  0.66317276  0.81991897    -0.06300
C1174       C  0.75053633  0.65141843  0.82405121    -0.15900
C1175       C  0.74490804  0.63422323  0.84901679    -0.01500
C1176       C  0.76779521  0.62885398  0.86875948    -0.09000
C1177       C  0.83124549  0.67078960  0.83399628     0.65300
H1178       H  0.78226078  0.67651451  0.80090635     0.10700
C1179       C  0.71463583  0.62260534  0.85530843     0.63700
H1180       H  0.76409043  0.61559111  0.88783914     0.08100
F1181       F  0.91056178  0.59808152  0.87322824    -0.19400
F1182       F  0.87439768  0.56623455  0.86622205    -0.15600
F1183       F  0.89519726  0.56944726  0.91003160    -0.19100
F1184       F  0.77494295  0.66016168  0.92705083    -0.22500
F1185       F  0.79623650  0.69361219  0.89832347    -0.24000
F1186       F  0.80986459  0.68918732  0.94478000    -0.18000
F1187       F  0.70689034  0.60257582  0.83428870    -0.20400
F1188       F  0.69481478  0.64524462  0.85530549    -0.21600
F1189       F  0.71315564  0.60903841  0.88211265    -0.18800
F1190       F  0.83146483  0.68859027  0.80976476    -0.18900
F1191       F  0.85115557  0.64873271  0.82943490    -0.22700
F1192       F  0.84004297  0.68724408  0.85756806    -0.24300
C1193       C  0.00597914  0.66400174  0.88401723    -0.11100
C1194       C  0.02510253  0.64054090  0.88060586     0.11500
C1195       C  0.02089317  0.61488757  0.89709817    -0.02900
C1196       C  0.99622426  0.61294524  0.91528953    -0.05700
C1197       C  0.97632412  0.63597290  0.91753538    -0.16400
C1198       C  0.98149336  0.66216120  0.90221534     0.02500
C1199       C  0.04930232  0.64395192  0.85947923     0.12400
C1200       C  0.04248435  0.58995318  0.89561859     0.63100
H1201       H  0.99202834  0.59330703  0.92756229     0.12500
C1202       C  0.96135508  0.68815255  0.90533616     0.55200
H1203       H  0.01014623  0.68364804  0.87173696     0.08300
C1204       C  0.04497870  0.64022278  0.82919267    -0.05600
C1205       C  0.06811104  0.64657045  0.81013740    -0.06300
C1206       C  0.09476250  0.65715640  0.82049119    -0.15900
C1207       C  0.09931990  0.66023490  0.85073723    -0.01500
C1208       C  0.07634061  0.65356982  0.86984651    -0.09000
C1209       C  0.01580397  0.63048181  0.81703603     0.65300
H1210       H  0.06520135  0.64447591  0.78687991     0.10700
C1211       C  0.12849185  0.67017133  0.86261853     0.63700
H1212       H  0.07902745  0.65649179  0.89303790     0.08100
F1213       F  0.93422374  0.68155503  0.89417774    -0.19400
F1214       F  0.97185576  0.71226061  0.89067689    -0.15600
F1215       F  0.95860904  0.69541560  0.93438766    -0.19100
F1216       F  0.06909997  0.59906752  0.90625948    -0.22500
F1217       F  0.04597609  0.58079059  0.86721326    -0.24000
F1218       F  0.03338189  0.56635893  0.91193743    -0.18000
F1219       F  0.13448603  0.69811425  0.85331055    -0.20400
F1220       F  0.15014925  0.65167441  0.85287692    -0.21600
F1221       F  0.12890888  0.67012388  0.89269516    -0.18800
F1222       F  0.01690466  0.62648043  0.78722873    -0.18900
F1223       F  0.99485984  0.65123927  0.82289151    -0.22700
F1224       F  0.00751319  0.60445175  0.82954052    -0.24300
C1225       C  0.00605065  0.83552763  0.32121115    -0.11100
C1226       C  0.02968300  0.83486881  0.30187108     0.11500
C1227       C  0.03438943  0.85862213  0.28289589    -0.02900
C1228       C  0.01604448  0.88302948  0.28502513    -0.05700
C1229       C  0.99239217  0.88398301  0.30445747    -0.16400
C1230       C  0.98703030  0.85962805  0.32271912     0.02500
C1231       C  0.04805886  0.80822556  0.30031912     0.12400
C1232       C  0.05806459  0.85774813  0.25976218     0.63100
H1233       H  0.01968154  0.90150115  0.27090214     0.12500
C1234       C  0.96178717  0.85910302  0.34403860     0.55200
H1235       H  0.00246713  0.81673489  0.33491775     0.08300
C1236       C  0.07350255  0.80460552  0.31729962    -0.05600
C1237       C  0.09190667  0.78074802  0.31142928    -0.06300
C1238       C  0.08539173  0.76050740  0.28945261    -0.15900
C1239       C  0.05831351  0.76261700  0.27466104    -0.01500
C1240       C  0.04020060  0.78663813  0.28032155    -0.09000
C1241       C  0.08126546  0.82600162  0.34123132     0.65300
H1242       H  0.11221380  0.77846557  0.32312083     0.10700
C1243       C  0.04825071  0.73965710  0.25311297     0.63700
H1244       H  0.02015806  0.78940196  0.26826288     0.08100
F1245       F  0.96254726  0.83477870  0.36172310    -0.19400
F1246       F  0.93574648  0.85863984  0.32901041    -0.15600
F1247       F  0.96278307  0.88343678  0.36170486    -0.19100
F1248       F  0.05222983  0.83563361  0.24024972    -0.22500
F1249       F  0.08491895  0.85284249  0.27229644    -0.24000
F1250       F  0.05970322  0.88355694  0.24438937    -0.18000
F1251       F  0.01891899  0.74246232  0.24681142    -0.20400
F1252       F  0.05250566  0.71219009  0.26458704    -0.21600
F1253       F  0.06358913  0.74225868  0.22738777    -0.18800
F1254       F  0.10626249  0.81780607  0.35586741    -0.18900
F1255       F  0.05878699  0.82741639  0.36117573    -0.22700
F1256       F  0.08581821  0.85335568  0.32970579    -0.24300
C1257       C  0.01048733  0.03614112  0.31973056    -0.11100
C1258       C  0.02827636  0.03910072  0.29509643     0.11500
C1259       C  0.02731335  0.01769521  0.27295100    -0.02900
C1260       C  0.00874548  0.99363723  0.27651044    -0.05700
C1261       C  0.99121687  0.99044017  0.30127757    -0.16400
C1262       C  0.99170138  0.01212466  0.32316592     0.02500
C1263       C  0.04914349  0.06380533  0.29377056     0.12400
C1264       C  0.04646154  0.01979286  0.24607626     0.63100
H1265       H  0.00822952  0.97665342  0.26018337     0.12500
C1266       C  0.97342679  0.00926791  0.35050132     0.55200
H1267       H  0.01191356  0.05258133  0.33653634     0.08300
C1268       C  0.04095439  0.09178952  0.28409540    -0.05600
C1269       C  0.06274082  0.11305361  0.28048668    -0.06300
C1270       C  0.09225248  0.10729513  0.28653134    -0.15900
C1271       C  0.09990994  0.07976950  0.29843258    -0.01500
C1272       C  0.07806514  0.05853371  0.30174176    -0.09000
C1273       C  0.00941768  0.09897686  0.27732294     0.65300
H1274       H  0.05687753  0.13419990  0.27200842     0.10700
C1275       C  0.13073742  0.07254422  0.30794544     0.63700
H1276       H  0.08353956  0.03711317  0.30983361     0.08100
F1277       F  0.94421682  0.00922623  0.34333661    -0.19400
F1278       F  0.97823746  0.03201996  0.36963320    -0.15600
F1279       F  0.98021655  0.98359341  0.36457240    -0.19100
F1280       F  0.07532888  0.01660526  0.25384945    -0.22500
F1281       F  0.04278628  0.04648268  0.23279651    -0.24000
F1282       F  0.03979957  0.99843695  0.22591803    -0.18000
F1283       F  0.13176105  0.04705883  0.32391364    -0.20400
F1284       F  0.14157511  0.09463238  0.32527695    -0.21600
F1285       F  0.14841053  0.06896368  0.28386645    -0.18800
F1286       F  0.00618987  0.12734909  0.26782610    -0.18900
F1287       F  0.99265417  0.09555259  0.30204956    -0.22700
F1288       F  0.99904648  0.08067218  0.25585524    -0.24300
C1289       C  0.81740111  0.84524321  0.72864095    -0.11100
C1290       C  0.80905442  0.83225439  0.70233341     0.11500
C1291       C  0.81928032  0.84412332  0.67577966    -0.02900
C1292       C  0.83760249  0.86873728  0.67663487    -0.05700
C1293       C  0.84570071  0.88176951  0.70298552    -0.16400
C1294       C  0.83597367  0.86952085  0.72954891     0.02500
C1295       C  0.78841850  0.80721140  0.70368088     0.12400
C1296       C  0.81042068  0.83130836  0.64669571     0.63100
H1297       H  0.84492517  0.87872656  0.65660286     0.12500
C1298       C  0.84429908  0.88091308  0.75940378     0.55200
H1299       H  0.80917043  0.83629501  0.74885216     0.08300
C1300       C  0.79733134  0.77910632  0.71267772    -0.05600
C1301       C  0.77598226  0.75748265  0.71701120    -0.06300
C1302       C  0.74634950  0.76297608  0.71217751    -0.15900
C1303       C  0.73755026  0.79069709  0.70217390    -0.01500
C1304       C  0.75878707  0.81252750  0.69842531    -0.09000
C1305       C  0.82919375  0.77205745  0.71794467     0.65300
H1306       H  0.78218039  0.73619684  0.72491297     0.10700
C1307       C  0.70573913  0.79732970  0.69640766     0.63700
H1308       H  0.75233321  0.83424968  0.69208926     0.08100
F1309       F  0.85667516  0.85861246  0.77531129    -0.19400
F1310       F  0.81954317  0.89038285  0.77367894    -0.15600
F1311       F  0.86408068  0.90352793  0.75851965    -0.19100
F1312       F  0.78074168  0.83420552  0.64287306    -0.22500
F1313       F  0.81768403  0.80217749  0.64565636    -0.24000
F1314       F  0.82417677  0.84514061  0.62375320    -0.18000
F1315       F  0.68967020  0.79322547  0.72151077    -0.20400
F1316       F  0.69537961  0.77898188  0.67495286    -0.21600
F1317       F  0.70169911  0.82570733  0.68723940    -0.18800
F1318       F  0.83323131  0.74297942  0.72456002    -0.18900
F1319       F  0.83974122  0.78833351  0.74088495    -0.22700
F1320       F  0.84527075  0.77826337  0.69330941    -0.24300
C1321       C  0.79900586  0.01512559  0.72651701    -0.11100
C1322       C  0.80424071  0.03806515  0.70725813     0.11500
C1323       C  0.82858529  0.03697118  0.68843240    -0.02900
C1324       C  0.84591571  0.01167861  0.68817292    -0.05700
C1325       C  0.83981037  0.98794450  0.70645260    -0.16400
C1326       C  0.81645260  0.99004839  0.72667430     0.02500
C1327       C  0.78425016  0.06339456  0.70841648     0.12400
C1328       C  0.83622941  0.06251214  0.66897141     0.63100
H1329       H  0.86414069  0.01007283  0.67332394     0.12500
C1330       C  0.81010542  0.96644014  0.74890388     0.55200
H1331       H  0.78074003  0.01695169  0.74131261     0.08300
C1332       C  0.75701252  0.06336329  0.69407447    -0.05600
C1333       C  0.73833409  0.08732026  0.69790724    -0.06300
C1334       C  0.74575083  0.11078162  0.71607333    -0.15900
C1335       C  0.77305006  0.11054269  0.73066723    -0.01500
C1336       C  0.79186357  0.08678862  0.72634486    -0.09000
C1337       C  0.74731414  0.03765863  0.67568992     0.65300
H1338       H  0.71726944  0.08751508  0.68736329     0.10700
C1339       C  0.78190937  0.13436426  0.75183631     0.63700
H1340       H  0.81258082  0.08586756  0.73752143     0.08100
F1341       F  0.79136799  0.97610372  0.77042495    -0.19400
F1342       F  0.83562673  0.95784000  0.76227416    -0.15600
F1343       F  0.79722675  0.94283510  0.73543247    -0.19100
F1344       F  0.84251690  0.08658004  0.68585916    -0.22500
F1345       F  0.81309951  0.06899790  0.65093934    -0.24000
F1346       F  0.86023925  0.05670775  0.65172219    -0.18000
F1347       F  0.80752615  0.12771618  0.76618215    -0.20400
F1348       F  0.76046596  0.13813849  0.77264016    -0.21600
F1349       F  0.78619560  0.16012422  0.73696702    -0.18800
F1350       F  0.72085369  0.04280008  0.66228354    -0.18900
F1351       F  0.74430710  0.01331681  0.69303486    -0.22700
F1352       F  0.76765320  0.03198419  0.65428328    -0.24300
C1353       C  0.24607392  0.05436957  0.92339714    -0.11100
C1354       C  0.22525972  0.04757311  0.90225666     0.11500
C1355       C  0.20944677  0.02121822  0.90426822    -0.02900
C1356       C  0.21335451  0.00359889  0.92894649    -0.05700
C1357       C  0.23218154  0.01179309  0.95153203    -0.16400
C1358       C  0.24966781  0.03712054  0.94834602     0.02500
C1359       C  0.21897052  0.06968318  0.87960829     0.12400
C1360       C  0.18805472  0.01217595  0.88082034     0.63100
H1361       H  0.20059462  0.98395517  0.93146403     0.12500
C1362       C  0.27203975  0.04613827  0.97096442     0.55200
H1363       H  0.25841561  0.07428984  0.92089701     0.08300
C1364       C  0.20086252  0.09387741  0.88556348    -0.05600
C1365       C  0.19523689  0.11384778  0.86318308    -0.06300
C1366       C  0.20731101  0.11059975  0.83531267    -0.15900
C1367       C  0.22641208  0.08695453  0.82970886    -0.01500
C1368       C  0.23185332  0.06679309  0.85212547    -0.09000
C1369       C  0.18756759  0.09860521  0.91548340     0.65300
H1370       H  0.18096860  0.13214966  0.86723212     0.10700
C1371       C  0.24180955  0.08349629  0.80068761     0.63700
H1372       H  0.24618092  0.04847578  0.84839139     0.08100
F1373       F  0.25826427  0.05639542  0.99564181    -0.19400
F1374       F  0.29003042  0.06806627  0.96079745    -0.15600
F1375       F  0.28937395  0.02263610  0.97810367    -0.19100
F1376       F  0.20260173  0.00871703  0.85473745    -0.22500
F1377       F  0.16680924  0.03319458  0.87761910    -0.24000
F1378       F  0.17444385  0.98612528  0.88741492    -0.18000
F1379       F  0.26276283  0.06189254  0.80159676    -0.20400
F1380       F  0.25550108  0.10925563  0.79328150    -0.21600
F1381       F  0.22193983  0.07616543  0.77936732    -0.18800
F1382       F  0.16929026  0.12251752  0.91607311    -0.18900
F1383       F  0.20935931  0.10321074  0.93565606    -0.22700
F1384       F  0.17150330  0.07449991  0.92357057    -0.24300
C1385       C  0.21797332  0.09947464  0.12179814    -0.11100
C1386       C  0.21361741  0.07007415  0.12832125     0.11500
C1387       C  0.20533887  0.06190087  0.15670781    -0.02900
C1388       C  0.19967085  0.08387447  0.17724439    -0.05700
C1389       C  0.20186087  0.11372309  0.17034754    -0.16400
C1390       C  0.21194146  0.12165422  0.14208023     0.02500
C1391       C  0.21582937  0.04865611  0.10421440     0.12400
C1392       C  0.20194602  0.03010266  0.16501710     0.63100
H1393       H  0.19251489  0.07766577  0.19877794     0.12500
C1394       C  0.21593585  0.15307985  0.13265008     0.55200
H1395       H  0.22488772  0.10492197  0.09995036     0.08300
C1396       C  0.19277782  0.04494258  0.08410804    -0.05600
C1397       C  0.19656826  0.02550933  0.06082460    -0.06300
C1398       C  0.22253626  0.01000681  0.05706837    -0.15900
C1399       C  0.24546316  0.01339367  0.07726766    -0.01500
C1400       C  0.24173257  0.03284917  0.10066637    -0.09000
C1401       C  0.16466236  0.06217049  0.08669402     0.65300
H1402       H  0.17958659  0.02294883  0.04471332     0.10700
C1403       C  0.27392165  0.99713591  0.07345385     0.63700
H1404       H  0.25917813  0.03630751  0.11608487     0.08100
F1405       F  0.18909810  0.16654268  0.13072187    -0.19400
F1406       F  0.22918293  0.15515503  0.10567500    -0.15600
F1407       F  0.23333344  0.16768521  0.15237162    -0.19100
F1408       F  0.22812256  0.01579208  0.16121280    -0.22500
F1409       F  0.18103330  0.01709261  0.14776948    -0.24000
F1410       F  0.19364238  0.02681870  0.19376047    -0.18000
F1411       F  0.29394192  0.00437544  0.09472141    -0.20400
F1412       F  0.28597908  0.00363893  0.04667514    -0.21600
F1413       F  0.26884068  0.96757762  0.07501076    -0.18800
F1414       F  0.14420451  0.05333059  0.06646444    -0.18900
F1415       F  0.17022642  0.09135455  0.08216887    -0.22700
F1416       F  0.15269614  0.05856226  0.11403304    -0.24300
C1417       C  0.64621124  0.81991649  0.92095854    -0.11100
C1418       C  0.62478606  0.82109732  0.89937727     0.11500
C1419       C  0.60111409  0.84058529  0.90244620    -0.02900
C1420       C  0.59996025  0.85865153  0.92722444    -0.05700
C1421       C  0.62153582  0.85750041  0.94879724    -0.16400
C1422       C  0.64545684  0.83829461  0.94534790     0.02500
C1423       C  0.62835630  0.80179443  0.87366646     0.12400
C1424       C  0.57719202  0.84208671  0.87976136     0.63100
H1425       H  0.58187586  0.87343792  0.93025301     0.12500
C1426       C  0.67081647  0.83800775  0.96653316     0.55200
H1427       H  0.66387837  0.80456091  0.91828399     0.08300
C1428       C  0.64903517  0.80791797  0.85165819    -0.05600
C1429       C  0.65306056  0.78758494  0.82918762    -0.06300
C1430       C  0.63717363  0.76151137  0.82800995    -0.15900
C1431       C  0.61599639  0.75564824  0.84974545    -0.01500
C1432       C  0.61221617  0.77591051  0.87245191    -0.09000
C1433       C  0.66717463  0.83557318  0.85216069     0.65300
H1434       H  0.66917556  0.79167209  0.81248504     0.10700
C1435       C  0.59811433  0.72784078  0.84959247     0.63700
H1436       H  0.59688424  0.77153231  0.88979637     0.08100
F1437       F  0.69401622  0.82193140  0.95597740    -0.19400
F1438       F  0.66226288  0.82588901  0.99265043    -0.15600
F1439       F  0.68055492  0.86610017  0.97121419    -0.19100
F1440       F  0.56246480  0.81589106  0.87868988    -0.22500
F1441       F  0.58906866  0.84780896  0.85274471    -0.24000
F1442       F  0.55719798  0.86372366  0.88599010    -0.18000
F1443       F  0.58132915  0.72510731  0.87445269    -0.20400
F1444       F  0.61628289  0.70391039  0.84801410    -0.21600
F1445       F  0.57956387  0.72787455  0.82594920    -0.18800
F1446       F  0.68394827  0.83845570  0.82731567    -0.18900
F1447       F  0.68575200  0.83527451  0.87574840    -0.22700
F1448       F  0.64919210  0.85958343  0.85409055    -0.24300
C1449       C  0.64545673  0.84831564  0.09664835    -0.11100
C1450       C  0.62291282  0.82892674  0.10339121     0.11500
C1451       C  0.59680473  0.82959670  0.08716797    -0.02900
C1452       C  0.59529411  0.84789274  0.06273493    -0.05700
C1453       C  0.61879071  0.86563654  0.05457503    -0.16400
C1454       C  0.64416835  0.86645637  0.07213760     0.02500
C1455       C  0.62841343  0.80637753  0.12575951     0.12400
C1456       C  0.57095976  0.81072615  0.09543298     0.63100
H1457       H  0.57601927  0.84782437  0.04919543     0.12500
C1458       C  0.67110577  0.88453959  0.06567157     0.55200
H1459       H  0.66508295  0.84797434  0.10972511     0.08300
C1460       C  0.64379088  0.78062839  0.11889782    -0.05600
C1461       C  0.64842558  0.76003549  0.14091375    -0.06300
C1462       C  0.63852322  0.76438832  0.16954237    -0.15900
C1463       C  0.62294999  0.79030645  0.17631356    -0.01500
C1464       C  0.61838701  0.81096015  0.15414978    -0.09000
C1465       C  0.65545467  0.77502417  0.08843427     0.65300
H1466       H  0.66050827  0.74044324  0.13593741     0.10700
C1467       C  0.61056733  0.79612989  0.20639853     0.63700
H1468       H  0.60698049  0.83104500  0.15878339     0.08100
F1469       F  0.69489010  0.86629212  0.06300488    -0.19400
F1470       F  0.67596014  0.90344684  0.08855823    -0.15600
F1471       F  0.66913154  0.90070383  0.04050491    -0.19100
F1472       F  0.56176249  0.81782727  0.12316027    -0.22500
F1473       F  0.57869962  0.78169427  0.09475425    -0.24000
F1474       F  0.54773304  0.81463489  0.07670674    -0.18000
F1475       F  0.63294232  0.80108354  0.22586088    -0.20400
F1476       F  0.59419834  0.77255267  0.21547123    -0.21600
F1477       F  0.59265543  0.82032622  0.20671682    -0.18800
F1478       F  0.66882626  0.74814668  0.08621039    -0.18900
F1479       F  0.67576549  0.79599647  0.08121411    -0.22700
F1480       F  0.63295281  0.77580070  0.06853721    -0.24300
C1481       C  0.76249323  0.23245908  0.87298689    -0.11100
C1482       C  0.78985880  0.22013506  0.86747746     0.11500
C1483       C  0.79440995  0.20427722  0.84152346    -0.02900
C1484       C  0.77166907  0.20254053  0.82113138    -0.05700
C1485       C  0.74413732  0.21502596  0.82626686    -0.16400
C1486       C  0.73929871  0.22996314  0.85298085     0.02500
C1487       C  0.81369532  0.22426578  0.88902509     0.12400
C1488       C  0.82299910  0.18861070  0.83578036     0.63100
H1489       H  0.77506243  0.19052628  0.80117332     0.12500
C1490       C  0.71012070  0.24358281  0.86042207     0.55200
H1491       H  0.75947492  0.24399774  0.89329358     0.08300
C1492       C  0.83251315  0.24862094  0.88790842    -0.05600
C1493       C  0.85694088  0.24931097  0.90637364    -0.06300
C1494       C  0.86279317  0.22672610  0.92603680    -0.15900
C1495       C  0.84324964  0.20282009  0.92792040    -0.01500
C1496       C  0.81873216  0.20235765  0.90958050    -0.09000
C1497       C  0.82679363  0.27362957  0.86715091     0.65300
H1498       H  0.87193715  0.26747941  0.90542087     0.10700
C1499       C  0.84747664  0.17656582  0.94752790     0.63700
H1500       H  0.80397310  0.18395190  0.91038823     0.08100
F1501       F  0.70120158  0.26152233  0.83803185    -0.19400
F1502       F  0.71152525  0.26018608  0.88549985    -0.15600
F1503       F  0.68961592  0.22200775  0.86486608    -0.19100
F1504       F  0.82702179  0.16721130  0.85646640    -0.22500
F1505       F  0.84602568  0.20792273  0.83705553    -0.24000
F1506       F  0.82343301  0.17552028  0.80869071    -0.18000
F1507       F  0.82452685  0.17497719  0.96694128    -0.20400
F1508       F  0.87307607  0.17707846  0.96317723    -0.21600
F1509       F  0.84763655  0.15160904  0.93071804    -0.18800
F1510       F  0.84777934  0.29512555  0.86940061    -0.18900
F1511       F  0.80006657  0.28595629  0.87337543    -0.22700
F1512       F  0.82665822  0.26371794  0.83878537    -0.24300
C1513       C  0.01963942  0.24197738  0.91806906    -0.11100
C1514       C  0.02065626  0.22362941  0.89379601     0.11500
C1515       C  0.99628227  0.20614304  0.88680689    -0.02900
C1516       C  0.97116188  0.20830351  0.90413915    -0.05700
C1517       C  0.96971628  0.22714518  0.92817455    -0.16400
C1518       C  0.99445849  0.24431017  0.93541041     0.02500
C1519       C  0.04760175  0.22303002  0.87598206     0.12400
C1520       C  0.99672341  0.18552983  0.86095098     0.63100
H1521       H  0.95227913  0.19518365  0.89897729     0.12500
C1522       C  0.99432257  0.26563049  0.96065671     0.55200
H1523       H  0.03883591  0.25466762  0.92316484     0.08300
C1524       C  0.05263130  0.24336312  0.85347343    -0.05600
C1525       C  0.07657263  0.23908690  0.83488544    -0.06300
C1526       C  0.09617841  0.21610902  0.83912557    -0.15900
C1527       C  0.09241112  0.19713510  0.86317129    -0.01500
C1528       C  0.06794797  0.20096971  0.88121503    -0.09000
C1529       C  0.03293739  0.26952759  0.84934861     0.65300
H1530       H  0.08012113  0.25358326  0.81668674     0.10700
C1531       C  0.11328964  0.17220344  0.86905688     0.63700
H1532       H  0.06395501  0.18623777  0.89912822     0.08100
F1533       F  0.01882896  0.28317247  0.96065319    -0.19400
F1534       F  0.99379249  0.25057271  0.98664563    -0.15600
F1535       F  0.97023239  0.28357331  0.95890342    -0.19100
F1536       F  0.01858655  0.16519900  0.86437522    -0.22500
F1537       F  0.00161085  0.20097464  0.83565699    -0.24000
F1538       F  0.97066716  0.17068248  0.85795198    -0.18000
F1539       F  0.14061774  0.18310016  0.87536264    -0.20400
F1540       F  0.11501733  0.15430071  0.84494107    -0.21600
F1541       F  0.10441423  0.15543364  0.89242829    -0.18800
F1542       F  0.04127163  0.28614202  0.82568275    -0.18900
F1543       F  0.03418993  0.28696863  0.87380465    -0.22700
F1544       F  0.00451808  0.26064893  0.84505787    -0.24300
C1545       C  0.79687715  0.63394417  0.15432750    -0.11100
C1546       C  0.79507844  0.64751843  0.12714914     0.11500
C1547       C  0.76933240  0.66239884  0.11932983    -0.02900
C1548       C  0.74695879  0.66516310  0.14010957    -0.05700
C1549       C  0.74942934  0.65321598  0.16815572    -0.16400
C1550       C  0.77448084  0.63640946  0.17509719     0.02500
C1551       C  0.82081369  0.64589753  0.10756386     0.12400
C1552       C  0.76561534  0.67530823  0.08919875     0.63100
H1553       H  0.72760547  0.67745917  0.13478713     0.12500
C1554       C  0.77778966  0.62085432  0.20404723     0.55200
H1555       H  0.81652538  0.62200044  0.15944186     0.08300
C1556       C  0.84493331  0.66479904  0.11093345    -0.05600
C1557       C  0.86921428  0.66112740  0.09266467    -0.06300
C1558       C  0.87018320  0.63926722  0.07137337    -0.15900
C1559       C  0.84598648  0.62037301  0.06794397    -0.01500
C1560       C  0.82166197  0.62402407  0.08631133    -0.09000
C1561       C  0.84525622  0.68842142  0.13406459     0.65300
H1562       H  0.88800530  0.67515431  0.09514006     0.10700
C1563       C  0.84625000  0.59575596  0.04593788     0.63700
H1564       H  0.80313427  0.60955689  0.08452686     0.08100
F1565       F  0.78354388  0.64080948  0.22579911    -0.19400
F1566       F  0.80045167  0.60103158  0.20348836    -0.15600
F1567       F  0.75256827  0.60573331  0.21058524    -0.19100
F1568       F  0.76695835  0.65343807  0.06861771    -0.22500
F1569       F  0.78742329  0.69528303  0.08371849    -0.24000
F1570       F  0.73911214  0.68928659  0.08620459    -0.18000
F1571       F  0.82167226  0.57844847  0.04815458    -0.20400
F1572       F  0.87035004  0.57831694  0.05041125    -0.21600
F1573       F  0.84712409  0.60698621  0.01809893    -0.18800
F1574       F  0.87040286  0.70499526  0.13283843    -0.18900
F1575       F  0.84368049  0.67600754  0.16135593    -0.22700
F1576       F  0.82181067  0.70684056  0.13033510    -0.24300
C1577       C  0.00145294  0.61640603  0.11915390    -0.11100
C1578       C  0.02539201  0.63332259  0.11100414     0.11500
C1579       C  0.02649087  0.64542499  0.08275746    -0.02900
C1580       C  0.00152819  0.64350967  0.06493252    -0.05700
C1581       C  0.97628353  0.62885009  0.07426607    -0.16400
C1582       C  0.97706360  0.61333576  0.10101062     0.02500
C1583       C  0.04774927  0.63964237  0.13350385     0.12400
C1584       C  0.05405555  0.65984508  0.07160809     0.63100
H1585       H  0.00128997  0.65415580  0.04396491     0.12500
C1586       C  0.95251512  0.59341210  0.11070847     0.55200
H1587       H  0.00152932  0.60647494  0.14049597     0.08300
C1588       C  0.04424790  0.66314712  0.15306926    -0.05600
C1589       C  0.06540218  0.66762216  0.17459726    -0.06300
C1590       C  0.08976434  0.64937179  0.17748847    -0.15900
C1591       C  0.09299233  0.62541406  0.15819694    -0.01500
C1592       C  0.07170618  0.62095852  0.13648030    -0.09000
C1593       C  0.01811016  0.68337003  0.15137337     0.65300
H1594       H  0.06296946  0.68561480  0.18960385     0.10700
C1595       C  0.11897677  0.60510424  0.15990694     0.63700
H1596       H  0.07351455  0.60278804  0.12160422     0.08100
F1597       F  0.92996574  0.60968245  0.12218607    -0.19400
F1598       F  0.96179054  0.57413008  0.13184840    -0.15600
F1599       F  0.94247053  0.57715046  0.08746401    -0.19100
F1600       F  0.07645299  0.63977074  0.07154369    -0.22500
F1601       F  0.06175741  0.68294931  0.08922690    -0.24000
F1602       F  0.05070790  0.67015416  0.04356182    -0.18000
F1603       F  0.11813038  0.58974029  0.18571169    -0.20400
F1604       F  0.14453411  0.62097271  0.15846402    -0.21600
F1605       F  0.11919426  0.58519250  0.13732188    -0.18800
F1606       F  0.01941121  0.70525149  0.17202736    -0.18900
F1607       F  0.99278961  0.66779199  0.15597784    -0.22700
F1608       F  0.01687735  0.69633732  0.12433382    -0.24300
C1609       C  0.01217554  0.84220270  0.71336502    -0.11100
C1610       C  0.03692778  0.84102130  0.69565554     0.11500
C1611       C  0.04123192  0.86225884  0.67388802    -0.02900
C1612       C  0.02158114  0.88568489  0.67226007    -0.05700
C1613       C  0.99756270  0.88786952  0.69113070    -0.16400
C1614       C  0.99227889  0.86534811  0.71161155     0.02500
C1615       C  0.05852152  0.81781549  0.70140910     0.12400
C1616       C  0.06657817  0.86015539  0.65274817     0.63100
H1617       H  0.02507864  0.90278429  0.65648014     0.12500
C1618       C  0.96661624  0.86615898  0.73247066     0.55200
H1619       H  0.00912868  0.82513919  0.72928231     0.08300
C1620       C  0.07995409  0.82104253  0.72324668    -0.05600
C1621       C  0.09958135  0.79818935  0.72791050    -0.06300
C1622       C  0.09793868  0.77213196  0.71212029    -0.15900
C1623       C  0.07576777  0.76842594  0.69101647    -0.01500
C1624       C  0.05645138  0.79163836  0.68586455    -0.09000
C1625       C  0.08166483  0.84818457  0.74206619     0.65300
H1626       H  0.11633270  0.80035252  0.74431700     0.10700
C1627       C  0.07161718  0.73979320  0.67508352     0.63700
H1628       H  0.03931394  0.78948669  0.66987120     0.08100
F1629       F  0.96767154  0.84374292  0.75249963    -0.19400
F1630       F  0.94091190  0.86341293  0.71710922    -0.15600
F1631       F  0.96657785  0.89209602  0.74772544    -0.19100
F1632       F  0.06498719  0.83423067  0.63758812    -0.22500
F1633       F  0.09266195  0.86116214  0.66764786    -0.24000
F1634       F  0.06638986  0.88262869  0.63276267    -0.18000
F1635       F  0.04667493  0.73986618  0.65821563    -0.20400
F1636       F  0.06920315  0.71734596  0.69494297    -0.21600
F1637       F  0.09509235  0.73464256  0.65699295    -0.18800
F1638       F  0.10466127  0.84698935  0.76145954    -0.18900
F1639       F  0.05629308  0.85112761  0.75796135    -0.22700
F1640       F  0.08538607  0.87251580  0.72487550    -0.24300
C1641       C  0.03148969  0.02887687  0.67807058    -0.11100
C1642       C  0.03191928  0.04259968  0.70527056     0.11500
C1643       C  0.01241322  0.03343369  0.72731000    -0.02900
C1644       C  0.99443622  0.00917288  0.72196055    -0.05700
C1645       C  0.99545680  0.99419666  0.69539560    -0.16400
C1646       C  0.01349605  0.00467504  0.67271308     0.02500
C1647       C  0.05393505  0.06569507  0.71051969     0.12400
C1648       C  0.01103626  0.04898482  0.75643221     0.63100
H1649       H  0.98020751  0.00101674  0.73888443     0.12500
C1650       C  0.01345853  0.99050040  0.64293150     0.55200
H1651       H  0.04612210  0.03674114  0.66135110     0.08300
C1652       C  0.08228964  0.05888418  0.72019004    -0.05600
C1653       C  0.10141741  0.08172841  0.72693090    -0.06300
C1654       C  0.09361908  0.11115299  0.72342569    -0.15900
C1655       C  0.06559063  0.11782593  0.71188192    -0.01500
C1656       C  0.04619849  0.09477670  0.70586259    -0.09000
C1657       C  0.09254321  0.02755925  0.72273710     0.65300
H1658       H  0.12284062  0.07653510  0.73517266     0.10700
C1659       C  0.05591524  0.14879238  0.70555725     0.63700
H1660       H  0.02450906  0.09923683  0.69781448     0.08100
F1661       F  0.02515308  0.96288832  0.64463932    -0.19400
F1662       F  0.02967352  0.00626219  0.62304128    -0.15600
F1663       F  0.98521897  0.98870179  0.63268175    -0.19100
F1664       F  0.00390026  0.07786528  0.75220223    -0.22500
F1665       F  0.03769042  0.04745799  0.77024634    -0.24000
F1666       F  0.99031574  0.03686649  0.77462875    -0.18000
F1667       F  0.07648816  0.16268877  0.68851342    -0.20400
F1668       F  0.05219730  0.16385003  0.73132584    -0.21600
F1669       F  0.02973740  0.14955062  0.69069566    -0.18800
F1670       F  0.12042188  0.02572561  0.73398443    -0.18900
F1671       F  0.09268434  0.01483127  0.69551284    -0.22700
F1672       F  0.07423064  0.01194996  0.74075348    -0.24300
C1673       C  0.79449171  0.78368705  0.27741854    -0.11100
C1674       C  0.78538283  0.80596282  0.29610144     0.11500
C1675       C  0.75731379  0.80462547  0.30880784    -0.02900
C1676       C  0.73917754  0.78082618  0.30217709    -0.05700
C1677       C  0.74787093  0.75884054  0.28277069    -0.16400
C1678       C  0.77620282  0.76012909  0.27026641     0.02500
C1679       C  0.80414181  0.83223258  0.29874486     0.12400
C1680       C  0.74611657  0.82883283  0.32834354     0.63100
H1681       H  0.71746672  0.77975665  0.31133280     0.12500
C1682       C  0.78656083  0.73799764  0.24797752     0.55200
H1683       H  0.81577071  0.78565873  0.26744141     0.08300
C1684       C  0.82858006  0.83371478  0.31743261    -0.05600
C1685       C  0.84456474  0.85990060  0.31887039    -0.06300
C1686       C  0.83682760  0.88427312  0.30218255    -0.15900
C1687       C  0.81316812  0.88212157  0.28238203    -0.01500
C1688       C  0.79739245  0.85598634  0.28101514    -0.09000
C1689       C  0.83768170  0.80777963  0.33563153     0.65300
H1690       H  0.86299726  0.86170847  0.33341625     0.10700
C1691       C  0.80468744  0.90691883  0.26223466     0.63700
H1692       H  0.77912477  0.85395480  0.26627982     0.08100
F1693       F  0.81371026  0.74498296  0.23688328    -0.19400
F1694       F  0.76720445  0.73691839  0.22498928    -0.15600
F1695       F  0.78862718  0.71083653  0.26063931    -0.19100
F1696       F  0.74281641  0.85407711  0.31241818    -0.22500
F1697       F  0.76553808  0.83384732  0.35071299    -0.24000
F1698       F  0.71941040  0.82198409  0.34052715    -0.18000
F1699       F  0.78539500  0.89789569  0.24095882    -0.20400
F1700       F  0.82912468  0.91781331  0.24840390    -0.21600
F1701       F  0.79134627  0.92881604  0.27795811    -0.18800
F1702       F  0.86128244  0.81418966  0.35320223    -0.18900
F1703       F  0.84542079  0.78497597  0.31763577    -0.22700
F1704       F  0.81490874  0.79911242  0.35327118    -0.24300
C1705       C  0.78348943  0.08986136  0.30362567    -0.11100
C1706       C  0.77707282  0.06106124  0.29615412     0.11500
C1707       C  0.74966622  0.05428977  0.28388908    -0.02900
C1708       C  0.72999228  0.07703495  0.27827584    -0.05700
C1709       C  0.73662349  0.10630095  0.28461624    -0.16400
C1710       C  0.76388491  0.11278607  0.29805938     0.02500
C1711       C  0.79953137  0.03829387  0.30122997     0.12400
C1712       C  0.74128231  0.02311374  0.27666326     0.63100
H1713       H  0.70923414  0.07197093  0.26837723     0.12500
C1714       C  0.77271187  0.14348945  0.30664119     0.55200
H1715       H  0.80444481  0.09425553  0.31346840     0.08300
C1716       C  0.82264876  0.03333199  0.28140414    -0.05600
C1717       C  0.84120683  0.00936626  0.28598552    -0.06300
C1718       C  0.83691797  0.99020783  0.30932130    -0.15900
C1719       C  0.81467463  0.99609468  0.32991681    -0.01500
C1720       C  0.79663737  0.02044504  0.32571510    -0.09000
C1721       C  0.82718729  0.05286740  0.25519120     0.65300
H1722       H  0.85839450  0.00459430  0.27058740     0.10700
C1723       C  0.80954343  0.97650247  0.35595724     0.63700
H1724       H  0.77913463  0.02498260  0.34083339     0.08100
F1725       F  0.77737375  0.16000720  0.28196362    -0.19400
F1726       F  0.79816922  0.14385811  0.32271192    -0.15600
F1727       F  0.75116004  0.15606456  0.32349629    -0.19100
F1728       F  0.73953129  0.00697155  0.30192760    -0.22500
F1729       F  0.76187663  0.01082081  0.25849869    -0.24000
F1730       F  0.71457338  0.02151025  0.26284978    -0.18000
F1731       F  0.79101876  0.98924732  0.37601334    -0.20400
F1732       F  0.83564336  0.97078642  0.36976615    -0.21600
F1733       F  0.79710454  0.95064411  0.34696323    -0.18800
F1734       F  0.84977487  0.04321046  0.23774404    -0.18900
F1735       F  0.83378644  0.08073060  0.26435066    -0.22700
F1736       F  0.80219344  0.05362345  0.23849732    -0.24300
C1737       C  0.64191092  0.08885059  0.87112834    -0.11100
C1738       C  0.62229433  0.06645624  0.86461081     0.11500
C1739       C  0.60825917  0.06594075  0.83723964    -0.02900
C1740       C  0.61451901  0.08820567  0.81712651    -0.05700
C1741       C  0.63420703  0.11068392  0.82368862    -0.16400
C1742       C  0.64885741  0.11057708  0.85085022     0.02500
C1743       C  0.61636597  0.04472066  0.88773559     0.12400
C1744       C  0.58688939  0.04200267  0.82936525     0.63100
H1745       H  0.60393917  0.08834550  0.79610885     0.12500
C1746       C  0.67284052  0.13226868  0.85799117     0.55200
H1747       H  0.65203799  0.08895215  0.89237637     0.08300
C1748       C  0.63686462  0.02298813  0.89534281    -0.05600
C1749       C  0.63183902  0.00627549  0.92046240    -0.06300
C1750       C  0.60746171  0.01108304  0.93818039    -0.15900
C1751       C  0.58608161  0.03146250  0.92955058    -0.01500
C1752       C  0.59109699  0.04822724  0.90450139    -0.09000
C1753       C  0.66430690  0.01800818  0.87754919     0.65300
H1754       H  0.64776302  0.99038028  0.92737447     0.10700
C1755       C  0.55810606  0.03546780  0.94665934     0.63700
H1756       H  0.57586340  0.06513324  0.89848651     0.08100
F1757       F  0.68717906  0.12515876  0.88346000    -0.19400
F1758       F  0.66120074  0.15976222  0.86139089    -0.15600
F1759       F  0.69326468  0.13262720  0.83585505    -0.19100
F1760       F  0.56281562  0.04342484  0.84733558    -0.22500
F1761       F  0.59995480  0.01513446  0.83254503    -0.24000
F1762       F  0.57741584  0.04437923  0.80091753    -0.18000
F1763       F  0.56391925  0.04917337  0.97275301    -0.20400
F1764       F  0.54550379  0.00867200  0.95204666    -0.21600
F1765       F  0.53812453  0.05215770  0.93157126    -0.18800
F1766       F  0.67991942  0.99427187  0.88746210    -0.18900
F1767       F  0.68220501  0.04210881  0.87913255    -0.22700
F1768       F  0.65711014  0.01296503  0.84883496    -0.24300
C1769       C  0.59946901  0.03201608  0.09424685    -0.11100
C1770       C  0.61739490  0.05661605  0.09218607     0.11500
C1771       C  0.63283288  0.06206132  0.06611729    -0.02900
C1772       C  0.62868099  0.04323120  0.04236842    -0.05700
C1773       C  0.61089471  0.01839748  0.04430558    -0.16400
C1774       C  0.59619145  0.01244744  0.07083900     0.02500
C1775       C  0.62089601  0.07544976  0.11825847     0.12400
C1776       C  0.65446131  0.08698865  0.06376760     0.63100
H1777       H  0.64019742  0.04725874  0.02222834     0.12500
C1778       C  0.57698689  0.98582918  0.07458006     0.55200
H1779       H  0.58847518  0.02801038  0.11468143     0.08300
C1780       C  0.60204471  0.09907183  0.12420833    -0.05600
C1781       C  0.60812805  0.11713937  0.14823869    -0.06300
C1782       C  0.63146803  0.11135562  0.16706942    -0.15900
C1783       C  0.64951863  0.08687046  0.16174933    -0.01500
C1784       C  0.64392581  0.06941034  0.13723385    -0.09000
C1785       C  0.57527546  0.10461994  0.10569175     0.65300
H1786       H  0.59444145  0.13575753  0.15278739     0.10700
C1787       C  0.67512030  0.07963700  0.18131641     0.63700
H1788       H  0.65767024  0.05089033  0.13245600     0.08100
F1789       F  0.56189624  0.98644721  0.10063440    -0.19400
F1790       F  0.59396152  0.96101726  0.07436052    -0.15600
F1791       F  0.55682489  0.98442467  0.05231978    -0.19100
F1792       F  0.67725193  0.08235271  0.08278997    -0.22500
F1793       F  0.64116602  0.11305631  0.07059567    -0.24000
F1794       F  0.66590007  0.08938569  0.03601726    -0.18000
F1795       F  0.66507713  0.07165333  0.20849651    -0.20400
F1796       F  0.69319166  0.10356971  0.18393927    -0.21600
F1797       F  0.69152094  0.05684541  0.17041844    -0.18800
F1798       F  0.56075436  0.12959043  0.11419945    -0.18900
F1799       F  0.55630420  0.08141649  0.10831432    -0.22700
F1800       F  0.58298493  0.10771700  0.07682125    -0.24300
C1801       C  0.20099672  0.81526894  0.84930869    -0.11100
C1802       C  0.22178475  0.80717329  0.87001525     0.11500
C1803       C  0.23687639  0.78049447  0.86679980    -0.02900
C1804       C  0.23011884  0.76246858  0.84294917    -0.05700
C1805       C  0.20791482  0.76966730  0.82326985    -0.16400
C1806       C  0.19359385  0.79694021  0.82596529     0.02500
C1807       C  0.22320760  0.82457991  0.89720575     0.12400
C1808       C  0.25884755  0.77036860  0.88927676     0.63100
H1809       H  0.24087885  0.74166715  0.84054540     0.12500
C1810       C  0.17007643  0.80663000  0.80487206     0.55200
H1811       H  0.18931257  0.83545834  0.85259257     0.08300
C1812       C  0.23998462  0.85023356  0.90006339    -0.05600
C1813       C  0.23915681  0.86548161  0.92669529    -0.06300
C1814       C  0.22167109  0.85619464  0.95007489    -0.15900
C1815       C  0.20362800  0.83125547  0.94633966    -0.01500
C1816       C  0.20502075  0.81587630  0.91998749    -0.09000
C1817       C  0.25818328  0.86167809  0.87498989     0.65300
H1818       H  0.25236184  0.88478189  0.92950989     0.10700
C1819       C  0.18236123  0.82089318  0.96945837     0.63700
H1820       H  0.19177104  0.79663625  0.91682467     0.08100
F1821       F  0.16393096  0.83595836  0.80780327    -0.19400
F1822       F  0.14470560  0.79129671  0.81010994    -0.15600
F1823       F  0.17901258  0.80192867  0.77653199    -0.19100
F1824       F  0.24502213  0.76562289  0.91553753    -0.22500
F1825       F  0.28020564  0.79115897  0.89307911    -0.24000
F1826       F  0.27231953  0.74473866  0.88100394    -0.18000
F1827       F  0.16297494  0.80051715  0.95862268    -0.20400
F1828       F  0.16621329  0.84405898  0.97987179    -0.21600
F1829       F  0.19746441  0.80799150  0.99195251    -0.18800
F1830       F  0.27344974  0.88649897  0.88262482    -0.18900
F1831       F  0.24028810  0.86844685  0.85184843    -0.22700
F1832       F  0.27805963  0.84094616  0.86618730    -0.24300
C1833       C  0.23235837  0.84474171  0.10632519    -0.11100
C1834       C  0.21124213  0.82275188  0.10669508     0.11500
C1835       C  0.19283423  0.81876384  0.08237847    -0.02900
C1836       C  0.19713453  0.83629987  0.05783875    -0.05700
C1837       C  0.21878714  0.85778337  0.05690552    -0.16400
C1838       C  0.23647750  0.86256625  0.08177084     0.02500
C1839       C  0.20882631  0.80386109  0.13267390     0.12400
C1840       C  0.16860467  0.79625219  0.08250294     0.63100
H1841       H  0.18305754  0.83362155  0.03900825     0.12500
C1842       C  0.25972728  0.88599205  0.08238888     0.55200
H1843       H  0.24573341  0.84768908  0.12554036     0.08300
C1844       C  0.22557450  0.77823335  0.13556739    -0.05600
C1845       C  0.21904796  0.75898588  0.15842426    -0.06300
C1846       C  0.19715171  0.76527149  0.17880235    -0.15900
C1847       C  0.18267281  0.79253334  0.17762225    -0.01500
C1848       C  0.18847717  0.81120240  0.15412334    -0.09000
C1849       C  0.25037695  0.77159057  0.11475629     0.65300
H1850       H  0.23066081  0.73857065  0.16023586     0.10700
C1851       C  0.16213486  0.80246542  0.20157428     0.63700
H1852       H  0.17670038  0.83149229  0.15192979     0.08100
F1853       F  0.27644317  0.88462830  0.10736902    -0.19400
F1854       F  0.24665718  0.91301070  0.08158462    -0.15600
F1855       F  0.27813516  0.88293271  0.05877323    -0.19100
F1856       F  0.14851616  0.80314829  0.10379966    -0.22500
F1857       F  0.17984544  0.76894526  0.08800350    -0.24000
F1858       F  0.15416703  0.79511432  0.05612220    -0.18000
F1859       F  0.15500285  0.83157319  0.19877953    -0.20400
F1860       F  0.17535168  0.79881694  0.22833106    -0.21600
F1861       F  0.13659056  0.78660279  0.20076461    -0.18800
F1862       F  0.26331184  0.74511046  0.12079706    -0.18900
F1863       F  0.27139224  0.79299729  0.11714439    -0.22700
F1864       F  0.24037277  0.77078642  0.08644640    -0.24300
loop_ 
_geom_bond_atom_site_label_1 
_geom_bond_atom_site_label_2 
_geom_bond_distance 
_geom_bond_site_symmetry_2 
_ccdc_geom_bond_type 
C1            N2   1.357   1_556  A
C1            N6   1.364       .  A
C1         C1814   1.493       .  S
N2            C3   1.357       .  A
C3            N4   1.355       .  A
C3         C1837   1.483       .  S
N4            C5   1.358       .  A
C5            N6   1.364   1_554  A
C5           C45   1.474       .  S
C7            N8   1.358   1_564  A
C7           N12   1.359       .  A
C7         C1773   1.490   1_565  S
N8            C9   1.357   1_545  A
C9           N10   1.359       .  A
C9         C1750   1.477   1_565  S
N10          C11   1.360       .  A
C11          N12   1.361   1_556  A
C11          C39   1.474       .  S
C13          N14   1.361       .  A
C13          N18   1.352       .  A
C13        C1718   1.482       .  S
N14          C15   1.365       .  A
C15          N16   1.364       .  A
C15          C57   1.480       .  S
N16          C17   1.362       .  A
C17          N18   1.353       .  A
C17        C1686   1.485       .  S
C19          N20   1.358       .  A
C19          N24   1.363       .  A
C19        C1645   1.480       .  S
N20          C21   1.357       .  A
C21          N22   1.357       .  A
C21        C1613   1.485       .  S
N22          C23   1.359       .  A
C23          N24   1.363       .  A
C23          C53   1.477       .  S
C25          N26   1.364       .  A
C25          N30   1.357       .  A
C25        C1581   1.492       .  S
N26          C27   1.366       .  A
C27          N28   1.361       .  A
C27          C63   1.477   1_554  S
N28          C29   1.356       .  A
C29          N30   1.355       .  A
C29        C1558   1.484       .  S
C31          N32   1.360       .  A
C31          N36   1.358       .  A
C31        C1517   1.488       .  S
N32          C33   1.358       .  A
C33          N34   1.359       .  A
C33        C1494   1.479       .  S
N34          C35   1.361       .  A
C35          N36   1.358       .  A
C35          C71   1.471   1_556  S
C37          N38   1.362       .  A
C37          N42   1.355   1_556  A
C37        C1421   1.482       .  S
N38          C39   1.364       .  A
C39          N40   1.361   1_556  A
N40          C41   1.358       .  A
C41          N42   1.354       .  A
C41        C1453   1.472       .  S
C43          N44   1.362       .  A
C43          N48   1.354   1_566  A
C43        C1357   1.482   1_565  S
N44          C45   1.362   1_556  A
C45          N46   1.362       .  A
N46          C47   1.357       .  A
C47          N48   1.353   1_565  A
C47        C1398   1.474   1_565  S
C49          N50   1.356       .  A
C49          N54   1.363       .  A
C49        C1325   1.487       .  S
N50          C51   1.354       .  A
C51          N52   1.358       .  A
C51        C1293   1.475       .  S
N52          C53   1.363       .  A
C53          N54   1.363       .  A
C55          N56   1.363       .  A
C55          N60   1.359       .  A
C55        C1229   1.494       .  S
N56          C57   1.364       .  A
C57          N58   1.361       .  A
N58          C59   1.359       .  A
C59          N60   1.357       .  A
C59        C1261   1.480       .  S
C61          N62   1.360       .  A
C61          N66   1.355       .  A
C61        C1165   1.486       .  S
N62          C63   1.363       .  A
C63          N64   1.362       .  A
N64          C65   1.361       .  A
C65          N66   1.356       .  A
C65        C1197   1.476       .  S
C67          N68   1.360       .  A
C67          N72   1.356       .  A
C67        C1110   1.486       .  S
N68          C69   1.359       .  A
C69          N70   1.360       .  A
C69        C1142   1.482       .  S
N70          C71   1.362       .  A
C71          N72   1.357       .  A
C73          N74   1.353       .  A
C73          N78   1.356       .  A
C73        C1078   1.477       .  S
N74          C75   1.354       .  A
C75          N76   1.364       .  A
C75        C1037   1.494       .  S
N76          C77   1.364       .  A
C77          N78   1.360       .  A
C77         C182   1.474       .  S
C79          N80   1.361       .  A
C79          N84   1.356       .  A
C79         C973   1.489       .  S
N80          C81   1.364       .  A
C81          N82   1.363       .  A
C81         C258   1.478       .  S
N82          C83   1.360       .  A
C83          N84   1.355       .  A
C83        C1005   1.485       .  S
C85          N86   1.358       .  A
C85          N90   1.355       .  A
C85         C941   1.476       .  S
N86          C87   1.362       .  A
C87          N88   1.361       .  A
C87         C151   1.471       .  S
N88          C89   1.360       .  A
C89          N90   1.356       .  A
C89         C918   1.481       .  S
O91         C107   1.274       .  A
O91         Zn97   2.014       .  S
C92        C1046   1.486       .  S
C92         O108   1.271       .  A
C92         O105   1.278       .  A
O93         C106   1.273       .  A
O93        Cd100   2.071       .  S
O94         C112   1.276       .  A
O94        Cd103   2.076       .  S
O95         C109   1.275       .  A
O95         Cd99   2.069       .  S
O96         C107   1.276       .  A
O96         Cd99   2.089       .  S
Zn97        O108   2.004       .  S
Zn97        O110   2.014       .  S
Zn97        O102   1.932       .  S
O98         C109   1.275       .  A
O98        Cd103   2.077       .  S
Cd99        O101   2.077       .  S
Cd99        O102   2.007       .  S
Cd100       O104   2.067       .  S
Cd100       O113   2.073       .  S
Cd100       O102   2.001       .  S
O101        C111   1.274       .  A
O102       Cd103   2.008       .  S
Cd103       O105   2.091       .  S
O104        C111   1.276       .  A
C106        C877   1.484       .  S
C106        O110   1.274       .  A
C107        C950   1.483       .  S
C109       C1526   1.479       .  S
C111       C1654   1.497       .  S
C112       C1366   1.486       .  S
C112        O113   1.274       .  A
C114        N115   1.358       .  A
C114        N119   1.358       .  A
C114        C845   1.485       .  S
N115        C116   1.360       .  A
C116        N117   1.366       .  A
C116        C194   1.479       .  S
N117        C118   1.365       .  A
C118        N119   1.357       .  A
C118        C813   1.499       .  S
C120        N121   1.364       .  A
C120        N125   1.356       .  A
C120        C886   1.482       .  S
N121        C122   1.365       .  A
C122        N123   1.363       .  A
C122        C223   1.480       .  S
N123        C124   1.358       .  A
C124        N125   1.354       .  A
C124        C781   1.480       .  S
O126        C142   1.273       .  A
O126       Zn132   2.010       .  S
C127        C749   1.485       .  S
C127        O143   1.271       .  A
C127        O140   1.278       .  A
O128        C141   1.278       .  A
O128       Cd135   2.096       .  S
O129        C147   1.276       .  A
O129       Cd138   2.089       .  S
O130        C144   1.275       .  A
O130       Cd134   2.073       .  S
O131        C142   1.275       .  A
O131       Cd134   2.087       .  S
Zn132       O143   2.004       .  S
Zn132       O145   2.004       .  S
Zn132       O137   1.933       .  S
O133        C144   1.275       .  A
O133       Cd138   2.071       .  S
Cd134       O136   2.073       .  S
Cd134       O137   2.010       .  S
Cd135       O139   2.076       .  S
Cd135       O148   2.082       .  S
Cd135       O137   2.009       .  S
O136        C146   1.276       .  A
O137       Cd138   2.010       .  S
Cd138       O140   2.100       .  S
O139        C146   1.275       .  A
C141        C854   1.481       .  S
C141        O145   1.271       .  A
C142        C790   1.485       .  S
C144       C1741   1.482       .  S
C146       C1334   1.487       .  S
C147       C1485   1.498       .  S
C147        O148   1.277       .  A
C149        N150   1.361       .  A
C149        N154   1.356       .  A
C149        C685   1.483       .  S
N150        C151   1.363       .  A
C151        N152   1.359       .  A
N152        C153   1.356       .  A
C153        N154   1.355       .  A
C153        C717   1.478       .  S
O155        C171   1.272       .  A
O155       Zn161   2.006       .  S
C156       C1622   1.478       .  S
C156        O172   1.273       .  A
C156        O169   1.274       .  A
O157        C170   1.273       .  A
O157       Cd164   2.073       .  S
O158        C176   1.272       .  A
O158       Cd167   2.061       .  S
O159        C173   1.277       .  A
O159       Cd163   2.077       .  S
O160        C171   1.277       .  A
O160       Cd163   2.091       .  S
Zn161       O172   2.002       .  S
Zn161       O174   2.015       .  S
Zn161       O166   1.930       .  S
O162        C173   1.274       .  A
O162       Cd167   2.075       .  S
Cd163       O165   2.085       .  S
Cd163       O166   2.011       .  S
Cd164       O168   2.053       .  S
Cd164       O177   2.070       .  S
Cd164       O166   1.998       .  S
O165        C175   1.277       .  A
O166       Cd167   2.002       .  S
Cd167       O169   2.075       .  S
O168        C175   1.271       .  A
C170       C1206   1.474       .  S
C170        O174   1.273       .  A
C171       C1805   1.486       .  S
C173        C653   1.497       .  S
C175       C1069   1.489       .  S
C176        C726   1.487       .  S
C176        O177   1.275       .  A
C178        N179   1.360       .  A
C178        N183   1.358       .  A
C178        C630   1.496       .  S
N179        C180   1.360       .  A
C180        N181   1.360       .  A
C180        C758   1.488       .  S
N181        C182   1.361       .  A
C182        N183   1.361       .  A
C184        N185   1.358       .  A
C184        N189   1.353       .  A
C184        C662   1.477       .  S
N185        C186   1.362       .  A
C186        N187   1.366       .  A
C186        C250   1.479       .  S
N187        C188   1.364       .  A
C188        N189   1.356       .  A
C188        C589   1.492       .  S
C190        N191   1.358       .  A
C190        N195   1.358       .  A
C190        C557   1.484       .  S
N191        C192   1.356       .  A
C192        N193   1.363       .  A
C192        C525   1.497       .  S
N193        C194   1.365       .  A
C194        N195   1.360       .  A
O196        C212   1.274       .  A
O196       Zn202   2.019       .  S
C197       C1430   1.485       .  S
C197        O213   1.275       .  A
C197        O210   1.274       .  A
O198        C211   1.278       .  A
O198       Cd205   2.099       .  S
O199        C217   1.275       .  A
O199       Cd208   2.078       .  S
O200        C214   1.276       .  A
O200       Cd204   2.081       .  S
O201        C212   1.278       .  A
O201       Cd204   2.101       .  S
Zn202       O213   2.019       .  S
Zn202       O215   2.019       .  S
Zn202       O207   1.944       .  S
O203        C214   1.274       .  A
O203       Cd208   2.073       .  S
Cd204       O206   2.085       .  S
Cd204       O207   2.013       .  S
Cd205       O209   2.092       .  S
Cd205       O218   2.078       .  S
Cd205       O207   2.013       .  S
O206        C216   1.278       .  A
O207       Cd208   2.011       .  S
Cd208       O210   2.077       .  S
O209        C216   1.277       .  A
C211       C1174   1.486       .  S
C211        O215   1.274       .  A
C212       C1302   1.482       .  S
C214        C598   1.484       .  S
C216        C534   1.493       .  S
C217        C621   1.486       .  S
C217        O218   1.275       .  A
C219        N220   1.360       .  A
C219        N224   1.364       .  A
C219        C493   1.501       .  S
N220        C221   1.357       .  A
C221        N222   1.357       .  A
C221        C461   1.494       .  S
N222        C223   1.361       .  A
C223        N224   1.363       .  A
O225        C241   1.276       .  A
O225       Zn231   2.027       .  S
C226        C822   1.500       .  S
C226        O242   1.274       .  A
C226        O239   1.277       .  A
O227        C240   1.278       .  A
O227       Cd234   2.094       .  S
O228        C246   1.272       .  A
O228       Cd237   2.064       .  S
O229        C243   1.277       .  A
O229       Cd233   2.083       .  S
O230        C241   1.276       .  A
O230       Cd233   2.091       .  S
Zn231       O242   2.029       .  S
Zn231       O244   2.018       .  S
Zn231       O236   1.939       .  S
O232        C243   1.273       .  A
O232       Cd237   2.072       .  S
Cd233       O235   2.084       .  S
Cd233       O236   2.013       .  S
Cd234       O238   2.083       .  S
Cd234       O247   2.087       .  S
Cd234       O236   2.017       .  S
O235        C245   1.276       .  A
O236       Cd237   2.004       .  S
Cd237       O239   2.087       .  S
O238        C245   1.276       .  A
C240        C429   1.491       .  S
C240        O244   1.274       .  A
C241        C470   1.495       .  S
C243       C1709   1.501       .  S
C245       C1782   1.485       .  S
C246       C1101   1.493       .  S
C246        O247   1.278       .  A
C248        N249   1.362       .  A
C248        N253   1.354       .  A
C248        C397   1.486       .  S
N249        C250   1.363       .  A
C250        N251   1.364       .  A
N251        C252   1.360       .  A
C252        N253   1.352       .  A
C252        C365   1.482       .  S
C254        N255   1.353       .  A
C254        N259   1.361       .  A
C254        C333   1.482       .  S
N255        C256   1.353       .  A
C256        N257   1.361       .  A
C256        C438   1.487       .  S
N257        C258   1.364       .  A
C258        N259   1.364       .  A
O260        C276   1.271       .  A
O260       Zn266   2.003       .  S
C261        C406   1.489       .  S
C261        O277   1.274       .  A
C261        O274   1.275       .  A
O262        C275   1.277       .  A
O262       Cd269   2.099       .  S
O263        C281   1.274       .  A
O263       Cd272   2.073       .  S
O264        C278   1.274       .  A
O264       Cd268   2.080       .  S
O265        C276   1.276       .  A
O265       Cd268   2.083       .  S
Zn266       O277   2.010       .  S
Zn266       O279   2.009       .  S
Zn266       O271   1.934       .  S
O267        C278   1.276       .  A
O267       Cd272   2.079       .  S
Cd268       O270   2.063       .  S
Cd268       O271   2.005       .  S
Cd269       O273   2.089       .  S
Cd269       O282   2.073       .  S
Cd269       O271   2.013       .  S
O270        C280   1.273       .  A
O271       Cd272   2.005       .  S
Cd272       O274   2.079       .  S
O273        C280   1.278       .  A
C275        C342   1.483       .  S
C275        O279   1.273       .  A
C276        C566   1.484       .  S
C278       C1677   1.491       .  S
C280       C1549   1.491       .  S
C281       C1462   1.492       .  S
C281        O282   1.277       .  A
O283        C299   1.273       .  A
O283       Zn289   2.001       .  S
C284       C1238   1.489       .  S
C284        O300   1.271       .  A
C284        O297   1.277       .  A
O285        C298   1.276       .  A
O285       Cd292   2.083       .  S
O286        C304   1.275       .  A
O286       Cd295   2.080       .  S
O287        C301   1.276       .  A
O287       Cd291   2.082       .  S
O288        C299   1.276       .  A
O288       Cd291   2.093       .  S
Zn289       O300   2.008       .  S
Zn289       O302   2.005       .  S
Zn289       O294   1.930       .  S
O290        C301   1.277       .  A
O290       Cd295   2.076       .  S
Cd291       O293   2.081       .  S
Cd291       O294   2.015       .  S
Cd292       O296   2.075       .  S
Cd292       O305   2.079       .  S
Cd292       O294   2.009       .  S
O293        C303   1.277       .  A
O294       Cd295   2.008       .  S
Cd295       O297   2.099       .  S
O296        C303   1.274       .  A
C298       C1846   1.482       .  S
C298        O302   1.271       .  A
C299       C1590   1.490       .  S
C301        C694   1.486       .  S
C303       C1014   1.490       .  S
C304        C374   1.497       .  S
C304        O305   1.277       .  A
O306        C322   1.270       .  A
O306       Zn312   1.995       .  S
C307        C909   1.486       .  S
C307        O323   1.272       .  A
C307        O320   1.276       .  A
O308        C321   1.276       .  A
O308       Cd315   2.085       .  S
O309        C327   1.277       .  A
O309       Cd318   2.082       .  S
O310        C324   1.278       .  A
O310       Cd314   2.087       .  S
O311        C322   1.278       .  A
O311       Cd314   2.099       .  S
Zn312       O323   2.000       .  S
Zn312       O325   2.004       .  S
Zn312       O317   1.931       .  S
O313        C324   1.274       .  A
O313       Cd318   2.073       .  S
Cd314       O316   2.086       .  S
Cd314       O317   2.012       .  S
Cd315       O319   2.073       .  S
Cd315       O328   2.074       .  S
Cd315       O317   2.004       .  S
O316        C326   1.275       .  A
O317       Cd318   2.007       .  S
Cd318       O320   2.089       .  S
O319        C326   1.276       .  A
C321        C502   1.485       .  S
C321        O325   1.271       .  A
C322        C982   1.481       .  S
C324       C1133   1.495       .  S
C326       C1389   1.501       .  S
C327       C1270   1.494       .  S
C327        O328   1.274       .  A
C329        C330   1.400       .  A
C329        C334   1.406       .  A
C329        H339   1.083       .  S
C330        C335   1.488       .  S
C330        C331   1.417       .  A
C331        C332   1.411       .  A
C331        C336   1.518       .  S
C332        C333   1.404       .  A
C332        H337   1.083       .  S
C333        C334   1.420       .  A
C334        C338   1.519       .  S
C335        C340   1.417       .  A
C335        C344   1.404       .  A
C336        F352   1.383       .  S
C336        F353   1.382       .  S
C336        F354   1.385       .  S
C338        F349   1.382       .  S
C338        F350   1.384       .  S
C338        F351   1.383       .  S
C340        C341   1.405       .  A
C340        C345   1.521       .  S
C341        C342   1.403       .  A
C341        H346   1.083       .  S
C342        C343   1.418       .  A
C343        C344   1.412       .  A
C343        C347   1.516       .  S
C344        H348   1.083       .  S
C345        F358   1.385       .  S
C345        F359   1.382       .  S
C345        F360   1.382       .  S
C347        F355   1.382       .  S
C347        F356   1.383       .  S
C347        F357   1.385       .  S
C361        C362   1.402       .  A
C361        C366   1.407       .  A
C361        H371   1.083       .  S
C362        C367   1.489       .  S
C362        C363   1.416       .  A
C363        C364   1.410       .  A
C363        C368   1.518       .  S
C364        C365   1.404       .  A
C364        H369   1.083       .  S
C365        C366   1.420       .  A
C366        C370   1.520       .  S
C367        C372   1.415       .  A
C367        C376   1.400       .  A
C368        F384   1.382       .  S
C368        F385   1.381       .  S
C368        F386   1.385       .  S
C370        F381   1.381       .  S
C370        F382   1.385       .  S
C370        F383   1.383       .  S
C372        C373   1.409       .  A
C372        C377   1.521       .  S
C373        C374   1.409       .  A
C373        H378   1.083       .  S
C374        C375   1.426       .  A
C375        C376   1.410       .  A
C375        C379   1.521       .  S
C376        H380   1.083       .  S
C377        F390   1.385       .  S
C377        F391   1.382       .  S
C377        F392   1.382       .  S
C379        F387   1.385       .  S
C379        F388   1.383       .  S
C379        F389   1.383       .  S
C393        C394   1.398       .  A
C393        C398   1.405       .  A
C393        H403   1.083       .  S
C394        C399   1.482       .  S
C394        C395   1.413       .  A
C395        C396   1.408       .  A
C395        C400   1.518       .  S
C396        C397   1.406       .  A
C396        H401   1.083       .  S
C397        C398   1.424       .  A
C398        C402   1.521       .  S
C399        C404   1.414       .  A
C399        C408   1.400       .  A
C400        F416   1.383       .  S
C400        F417   1.382       .  S
C400        F418   1.384       .  S
C402        F413   1.382       .  S
C402        F414   1.385       .  S
C402        F415   1.384       .  S
C404        C405   1.404       .  A
C404        C409   1.522       .  S
C405        C406   1.407       .  A
C405        H410   1.083       .  S
C406        C407   1.423       .  A
C407        C408   1.410       .  A
C407        C411   1.519       .  S
C408        H412   1.083       .  S
C409        F422   1.384       .  S
C409        F423   1.382       .  S
C409        F424   1.382       .  S
C411        F419   1.383       .  S
C411        F420   1.384       .  S
C411        F421   1.385       .  S
C425        C426   1.400       .  A
C425        C430   1.407       .  A
C425        H435   1.083       .  S
C426        C431   1.488       .  S
C426        C427   1.417       .  A
C427        C428   1.412       .  A
C427        C432   1.521       .  S
C428        C429   1.407       .  A
C428        H433   1.083       .  S
C429        C430   1.423       .  A
C430        C434   1.520       .  S
C431        C436   1.416       .  A
C431        C440   1.400       .  A
C432        F448   1.382       .  S
C432        F449   1.381       .  S
C432        F450   1.384       .  S
C434        F445   1.384       .  S
C434        F446   1.383       .  S
C434        F447   1.384       .  S
C436        C437   1.412       .  A
C436        C441   1.518       .  S
C437        C438   1.406       .  A
C437        H442   1.083       .  S
C438        C439   1.422       .  A
C439        C440   1.405       .  A
C439        C443   1.522       .  S
C440        H444   1.083       .  S
C441        F454   1.385       .  S
C441        F455   1.382       .  S
C441        F456   1.381       .  S
C443        F451   1.385       .  S
C443        F452   1.384       .  S
C443        F453   1.382       .  S
C457        C458   1.402       .  A
C457        C462   1.412       .  A
C457        H467   1.083       .  S
C458        C463   1.491       .  S
C458        C459   1.414       .  A
C459        C460   1.408       .  A
C459        C464   1.519       .  S
C460        C461   1.408       .  A
C460        H465   1.083       .  S
C461        C462   1.424       .  A
C462        C466   1.520       .  S
C463        C468   1.416       .  A
C463        C472   1.402       .  A
C464        F480   1.383       .  S
C464        F481   1.383       .  S
C464        F482   1.384       .  S
C466        F477   1.384       .  S
C466        F478   1.383       .  S
C466        F479   1.384       .  S
C468        C469   1.407       .  A
C468        C473   1.521       .  S
C469        C470   1.407       .  A
C469        H474   1.083       .  S
C470        C471   1.424       .  A
C471        C472   1.413       .  A
C471        C475   1.519       .  S
C472        H476   1.083       .  S
C473        F486   1.384       .  S
C473        F487   1.382       .  S
C473        F488   1.383       .  S
C475        F483   1.385       .  S
C475        F484   1.384       .  S
C475        F485   1.383       .  S
C489        C490   1.400       .  A
C489        C494   1.410       .  A
C489        H499   1.083       .  S
C490        C495   1.487       .  S
C490        C491   1.413       .  A
C491        C492   1.406       .  A
C491        C496   1.521       .  S
C492        C493   1.411       .  A
C492        H497   1.083       .  S
C493        C494   1.425       .  A
C494        C498   1.516       .  S
C495        C500   1.416       .  A
C495        C504   1.400       .  A
C496        F512   1.382       .  S
C496        F513   1.382       .  S
C496        F514   1.384       .  S
C498        F509   1.385       .  S
C498        F510   1.383       .  S
C498        F511   1.383       .  S
C500        C501   1.410       .  A
C500        C505   1.518       .  S
C501        C502   1.406       .  A
C501        H506   1.083       .  S
C502        C503   1.421       .  A
C503        C504   1.405       .  A
C503        C507   1.521       .  S
C504        H508   1.084       .  S
C505        F518   1.384       .  S
C505        F519   1.382       .  S
C505        F520   1.382       .  S
C507        F515   1.382       .  S
C507        F516   1.384       .  S
C507        F517   1.385       .  S
C521        C522   1.399       .  A
C521        C526   1.408       .  A
C521        H531   1.083       .  S
C522        C527   1.492       .  S
C522        C523   1.415       .  A
C523        C524   1.412       .  A
C523        C528   1.518       .  S
C524        C525   1.408       .  A
C524        H529   1.082       .  S
C525        C526   1.427       .  A
C526        C530   1.520       .  S
C527        C532   1.417       .  A
C527        C536   1.402       .  A
C528        F544   1.382       .  S
C528        F545   1.382       .  S
C528        F546   1.385       .  S
C530        F541   1.382       .  S
C530        F542   1.385       .  S
C530        F543   1.383       .  S
C532        C533   1.408       .  A
C532        C537   1.520       .  S
C533        C534   1.405       .  A
C533        H538   1.083       .  S
C534        C535   1.424       .  A
C535        C536   1.412       .  A
C535        C539   1.520       .  S
C536        H540   1.083       .  S
C537        F550   1.385       .  S
C537        F551   1.382       .  S
C537        F552   1.382       .  S
C539        F547   1.385       .  S
C539        F548   1.384       .  S
C539        F549   1.382       .  S
C553        C554   1.403       .  A
C553        C558   1.411       .  A
C553        H563   1.083       .  S
C554        C559   1.484       .  S
C554        C555   1.415       .  A
C555        C556   1.402       .  A
C555        C560   1.521       .  S
C556        C557   1.404       .  A
C556        H561   1.082       .  S
C557        C558   1.420       .  A
C558        C562   1.518       .  S
C559        C564   1.415       .  A
C559        C568   1.399       .  A
C560        F576   1.382       .  S
C560        F577   1.383       .  S
C560        F578   1.385       .  S
C562        F573   1.385       .  S
C562        F574   1.382       .  S
C562        F575   1.383       .  S
C564        C565   1.407       .  A
C564        C569   1.519       .  S
C565        C566   1.405       .  A
C565        H570   1.083       .  S
C566        C567   1.423       .  A
C567        C568   1.406       .  A
C567        C571   1.521       .  S
C568        H572   1.083       .  S
C569        F582   1.385       .  S
C569        F583   1.382       .  S
C569        F584   1.383       .  S
C571        F579   1.385       .  S
C571        F580   1.383       .  S
C571        F581   1.382       .  S
C585        C586   1.404       .  A
C585        C590   1.413       .  A
C585        H595   1.083       .  S
C586        C591   1.488       .  S
C586        C587   1.414       .  A
C587        C588   1.405       .  A
C587        C592   1.522       .  S
C588        C589   1.408       .  A
C588        H593   1.083       .  S
C589        C590   1.421       .  A
C590        C594   1.517       .  S
C591        C596   1.415       .  A
C591        C600   1.403       .  A
C592        F608   1.382       .  S
C592        F609   1.382       .  S
C592        F610   1.385       .  S
C594        F605   1.382       .  S
C594        F606   1.385       .  S
C594        F607   1.383       .  S
C596        C597   1.408       .  A
C596        C601   1.519       .  S
C597        C598   1.405       .  A
C597        H602   1.083       .  S
C598        C599   1.419       .  A
C599        C600   1.409       .  A
C599        C603   1.519       .  S
C600        H604   1.083       .  S
C601        F614   1.384       .  S
C601        F615   1.382       .  S
C601        F616   1.382       .  S
C603        F611   1.385       .  S
C603        F612   1.384       .  S
C603        F613   1.382       .  S
C617        C618   1.402       .  A
C617        C622   1.409       .  A
C617        H627   1.083       .  S
C618        C623   1.489       .  S
C618        C619   1.416       .  A
C619        C620   1.408       .  A
C619        C624   1.519       .  S
C620        C621   1.406       .  A
C620        H625   1.083       .  S
C621        C622   1.420       .  A
C622        C626   1.518       .  S
C623        C628   1.414       .  A
C623        C632   1.402       .  A
C624        F640   1.382       .  S
C624        F641   1.382       .  S
C624        F642   1.385       .  S
C626        F637   1.382       .  S
C626        F638   1.385       .  S
C626        F639   1.384       .  S
C628        C629   1.405       .  A
C628        C633   1.521       .  S
C629        C630   1.408       .  A
C629        H634   1.082       .  S
C630        C631   1.426       .  A
C631        C632   1.413       .  A
C631        C635   1.520       .  S
C632        H636   1.083       .  S
C633        F646   1.384       .  S
C633        F647   1.382       .  S
C633        F648   1.382       .  S
C635        F643   1.385       .  S
C635        F644   1.383       .  S
C635        F645   1.382       .  S
C649        C650   1.399       .  A
C649        C654   1.410       .  A
C649        H659   1.083       .  S
C650        C655   1.485       .  S
C650        C651   1.413       .  A
C651        C652   1.406       .  A
C651        C656   1.521       .  S
C652        C653   1.410       .  A
C652        H657   1.082       .  S
C653        C654   1.427       .  A
C654        C658   1.520       .  S
C655        C660   1.417       .  A
C655        C664   1.402       .  A
C656        F672   1.382       .  S
C656        F673   1.382       .  S
C656        F674   1.384       .  S
C658        F669   1.383       .  S
C658        F670   1.385       .  S
C658        F671   1.383       .  S
C660        C661   1.407       .  A
C660        C665   1.519       .  S
C661        C662   1.402       .  A
C661        H666   1.083       .  S
C662        C663   1.417       .  A
C663        C664   1.407       .  A
C663        C667   1.518       .  S
C664        H668   1.083       .  S
C665        F678   1.384       .  S
C665        F679   1.382       .  S
C665        F680   1.383       .  S
C667        F675   1.384       .  S
C667        F676   1.384       .  S
C667        F677   1.382       .  S
C681        C682   1.402       .  A
C681        C686   1.409       .  A
C681        H691   1.083       .  S
C682        C687   1.485       .  S
C682        C683   1.414       .  A
C683        C684   1.406       .  A
C683        C688   1.520       .  S
C684        C685   1.406       .  A
C684        H689   1.083       .  S
C685        C686   1.418       .  A
C686        C690   1.518       .  S
C687        C692   1.415       .  A
C687        C696   1.402       .  A
C688        F704   1.382       .  S
C688        F705   1.382       .  S
C688        F706   1.385       .  S
C690        F701   1.385       .  S
C690        F702   1.382       .  S
C690        F703   1.383       .  S
C692        C693   1.406       .  A
C692        C697   1.521       .  S
C693        C694   1.405       .  A
C693        H698   1.083       .  S
C694        C695   1.420       .  A
C695        C696   1.410       .  A
C695        C699   1.518       .  S
C696        H700   1.083       .  S
C697        F710   1.385       .  S
C697        F711   1.382       .  S
C697        F712   1.382       .  S
C699        F707   1.383       .  S
C699        F708   1.383       .  S
C699        F709   1.385       .  S
C713        C714   1.402       .  A
C713        C718   1.407       .  A
C713        H723   1.083       .  S
C714        C719   1.480       .  S
C714        C715   1.414       .  A
C715        C716   1.404       .  A
C715        C720   1.519       .  S
C716        C717   1.404       .  A
C716        H721   1.084       .  S
C717        C718   1.419       .  A
C718        C722   1.519       .  S
C719        C724   1.413       .  A
C719        C728   1.399       .  A
C720        F736   1.382       .  S
C720        F737   1.382       .  S
C720        F738   1.385       .  S
C722        F733   1.382       .  S
C722        F734   1.385       .  S
C722        F735   1.383       .  S
C724        C725   1.407       .  A
C724        C729   1.519       .  S
C725        C726   1.408       .  A
C725        H730   1.083       .  S
C726        C727   1.425       .  A
C727        C728   1.405       .  A
C727        C731   1.522       .  S
C728        H732   1.084       .  S
C729        F742   1.384       .  S
C729        F743   1.382       .  S
C729        F744   1.382       .  S
C731        F739   1.385       .  S
C731        F740   1.384       .  S
C731        F741   1.383       .  S
C745        C746   1.400       .  A
C745        C750   1.405       .  A
C745        H755   1.083       .  S
C746        C751   1.487       .  S
C746        C747   1.416       .  A
C747        C748   1.412       .  A
C747        C752   1.519       .  S
C748        C749   1.406       .  A
C748        H753   1.083       .  S
C749        C750   1.422       .  A
C750        C754   1.521       .  S
C751        C756   1.415       .  A
C751        C760   1.403       .  A
C752        F768   1.383       .  S
C752        F769   1.381       .  S
C752        F770   1.384       .  S
C754        F765   1.385       .  S
C754        F766   1.383       .  S
C754        F767   1.383       .  S
C756        C757   1.407       .  A
C756        C761   1.520       .  S
C757        C758   1.405       .  A
C757        H762   1.083       .  S
C758        C759   1.422       .  A
C759        C760   1.411       .  A
C759        C763   1.520       .  S
C760        H764   1.083       .  S
C761        F774   1.384       .  S
C761        F775   1.382       .  S
C761        F776   1.381       .  S
C763        F771   1.385       .  S
C763        F772   1.384       .  S
C763        F773   1.382       .  S
C777        C778   1.402       .  A
C777        C782   1.406       .  A
C777        H787   1.084       .  S
C778        C783   1.489       .  S
C778        C779   1.417       .  A
C779        C780   1.411       .  A
C779        C784   1.518       .  S
C780        C781   1.403       .  A
C780        H785   1.083       .  S
C781        C782   1.417       .  A
C782        C786   1.520       .  S
C783        C788   1.416       .  A
C783        C792   1.404       .  A
C784        F800   1.382       .  S
C784        F801   1.382       .  S
C784        F802   1.385       .  S
C786        F797   1.385       .  S
C786        F798   1.382       .  S
C786        F799   1.384       .  S
C788        C789   1.407       .  A
C788        C793   1.520       .  S
C789        C790   1.405       .  A
C789        H794   1.083       .  S
C790        C791   1.419       .  A
C791        C792   1.411       .  A
C791        C795   1.519       .  S
C792        H796   1.083       .  S
C793        F806   1.385       .  S
C793        F807   1.381       .  S
C793        F808   1.382       .  S
C795        F803   1.384       .  S
C795        F804   1.383       .  S
C795        F805   1.384       .  S
C809        C810   1.401       .  A
C809        C814   1.411       .  A
C809        H819   1.083       .  S
C810        C815   1.495       .  S
C810        C811   1.417       .  A
C811        C812   1.412       .  A
C811        C816   1.519       .  S
C812        C813   1.408       .  A
C812        H817   1.082       .  S
C813        C814   1.426       .  A
C814        C818   1.519       .  S
C815        C820   1.416       .  A
C815        C824   1.401       .  A
C816        F832   1.382       .  S
C816        F833   1.383       .  S
C816        F834   1.384       .  S
C818        F829   1.385       .  S
C818        F830   1.382       .  S
C818        F831   1.384       .  S
C820        C821   1.412       .  A
C820        C825   1.519       .  S
C821        C822   1.410       .  A
C821        H826   1.082       .  S
C822        C823   1.426       .  A
C823        C824   1.410       .  A
C823        C827   1.521       .  S
C824        H828   1.083       .  S
C825        F838   1.385       .  S
C825        F839   1.382       .  S
C825        F840   1.382       .  S
C827        F835   1.385       .  S
C827        F836   1.384       .  S
C827        F837   1.383       .  S
C841        C842   1.403       .  A
C841        C846   1.410       .  A
C841        H851   1.083       .  S
C842        C847   1.487       .  S
C842        C843   1.416       .  A
C843        C844   1.406       .  A
C843        C848   1.519       .  S
C844        C845   1.404       .  A
C844        H849   1.083       .  S
C845        C846   1.420       .  A
C846        C850   1.519       .  S
C847        C852   1.417       .  A
C847        C856   1.401       .  A
C848        F864   1.382       .  S
C848        F865   1.382       .  S
C848        F866   1.385       .  S
C850        F861   1.383       .  S
C850        F862   1.385       .  S
C850        F863   1.383       .  S
C852        C853   1.411       .  A
C852        C857   1.518       .  S
C853        C854   1.404       .  A
C853        H858   1.083       .  S
C854        C855   1.419       .  A
C855        C856   1.406       .  A
C855        C859   1.521       .  S
C856        H860   1.083       .  S
C857        F870   1.384       .  S
C857        F871   1.382       .  S
C857        F872   1.382       .  S
C859        F867   1.385       .  S
C859        F868   1.382       .  S
C859        F869   1.383       .  S
C873        C874   1.402       .  A
C873        C878   1.410       .  A
C873        H883   1.083       .  S
C874        C879   1.486       .  S
C874        C875   1.416       .  A
C875        C876   1.405       .  A
C875        C880   1.521       .  S
C876        C877   1.404       .  A
C876        H881   1.083       .  S
C877        C878   1.420       .  A
C878        C882   1.519       .  S
C879        C884   1.416       .  A
C879        C888   1.402       .  A
C880        F896   1.382       .  S
C880        F897   1.382       .  S
C880        F898   1.385       .  S
C882        F893   1.383       .  S
C882        F894   1.384       .  S
C882        F895   1.383       .  S
C884        C885   1.409       .  A
C884        C889   1.520       .  S
C885        C886   1.406       .  A
C885        H890   1.083       .  S
C886        C887   1.417       .  A
C887        C888   1.407       .  A
C887        C891   1.515       .  S
C888        H892   1.083       .  S
C889        F902   1.384       .  S
C889        F903   1.382       .  S
C889        F904   1.382       .  S
C891        F899   1.378       .  S
C891        F900   1.383       .  S
C891        F901   1.385       .  S
C905        C906   1.402       .  A
C905        C910   1.408       .  A
C905        H915   1.083       .  S
C906        C911   1.483       .  S
C906        C907   1.414       .  A
C907        C908   1.406       .  A
C907        C912   1.521       .  S
C908        C909   1.408       .  A
C908        H913   1.082       .  S
C909        C910   1.419       .  A
C910        C914   1.518       .  S
C911        C916   1.415       .  A
C911        C920   1.399       .  A
C912        F928   1.382       .  S
C912        F929   1.382       .  S
C912        F930   1.385       .  S
C914        F925   1.385       .  S
C914        F926   1.384       .  S
C914        F927   1.382       .  S
C916        C917   1.409       .  A
C916        C921   1.519       .  S
C917        C918   1.405       .  A
C917        H922   1.083       .  S
C918        C919   1.420       .  A
C919        C920   1.404       .  A
C919        C923   1.521       .  S
C920        H924   1.083       .  S
C921        F934   1.385       .  S
C921        F935   1.382       .  S
C921        F936   1.382       .  S
C923        F931   1.382       .  S
C923        F932   1.384       .  S
C923        F933   1.385       .  S
C937        C938   1.401       .  A
C937        C942   1.406       .  A
C937        H947   1.085       .  S
C938        C943   1.487       .  S
C938        C939   1.414       .  A
C939        C940   1.409       .  A
C939        C944   1.518       .  S
C940        C941   1.405       .  A
C940        H945   1.083       .  S
C941        C942   1.421       .  A
C942        C946   1.521       .  S
C943        C948   1.416       .  A
C943        C952   1.404       .  A
C944        F960   1.382       .  S
C944        F961   1.382       .  S
C944        F962   1.384       .  S
C946        F957   1.384       .  S
C946        F958   1.383       .  S
C946        F959   1.380       .  S
C948        C949   1.404       .  A
C948        C953   1.522       .  S
C949        C950   1.403       .  A
C949        H954   1.083       .  S
C950        C951   1.419       .  A
C951        C952   1.413       .  A
C951        C955   1.518       .  S
C952        H956   1.083       .  S
C953        F966   1.384       .  S
C953        F967   1.382       .  S
C953        F968   1.382       .  S
C955        F963   1.385       .  S
C955        F964   1.384       .  S
C955        F965   1.382       .  S
C969        C970   1.403       .  A
C969        C974   1.411       .  A
C969        H979   1.083       .  S
C970        C975   1.488       .  S
C970        C971   1.415       .  A
C971        C972   1.408       .  A
C971        C976   1.520       .  S
C972        C973   1.407       .  A
C972        H977   1.083       .  S
C973        C974   1.420       .  A
C974        C978   1.519       .  S
C975        C980   1.417       .  A
C975        C984   1.402       .  A
C976        F992   1.382       .  S
C976        F993   1.382       .  S
C976        F994   1.384       .  S
C978        F989   1.383       .  S
C978        F990   1.385       .  S
C978        F991   1.384       .  S
C980        C981   1.411       .  A
C980        C985   1.518       .  S
C981        C982   1.404       .  A
C981        H986   1.083       .  S
C982        C983   1.420       .  A
C983        C984   1.406       .  A
C983        C987   1.521       .  S
C984        H988   1.083       .  S
C985        F998   1.385       .  S
C985        F999   1.382       .  S
C985       F1000   1.381       .  S
C987        F995   1.382       .  S
C987        F996   1.383       .  S
C987        F997   1.385       .  S
C1001      C1002   1.400       .  A
C1001      C1006   1.405       .  A
C1001      H1011   1.083       .  S
C1002      C1007   1.487       .  S
C1002      C1003   1.416       .  A
C1003      C1004   1.412       .  A
C1003      C1008   1.518       .  S
C1004      C1005   1.406       .  A
C1004      H1009   1.083       .  S
C1005      C1006   1.421       .  A
C1006      C1010   1.521       .  S
C1007      C1012   1.416       .  A
C1007      C1016   1.400       .  A
C1008      F1024   1.382       .  S
C1008      F1025   1.382       .  S
C1008      F1026   1.384       .  S
C1010      F1021   1.382       .  S
C1010      F1022   1.385       .  S
C1010      F1023   1.384       .  S
C1012      C1013   1.408       .  A
C1012      C1017   1.520       .  S
C1013      C1014   1.407       .  A
C1013      H1018   1.083       .  S
C1014      C1015   1.424       .  A
C1015      C1016   1.408       .  A
C1015      C1019   1.520       .  S
C1016      H1020   1.083       .  S
C1017      F1030   1.384       .  S
C1017      F1031   1.382       .  S
C1017      F1032   1.382       .  S
C1019      F1027   1.385       .  S
C1019      F1028   1.384       .  S
C1019      F1029   1.383       .  S
C1033      C1034   1.397       .  A
C1033      C1038   1.405       .  A
C1033      H1043   1.083       .  S
C1034      C1039   1.485       .  S
C1034      C1035   1.414       .  A
C1035      C1036   1.411       .  A
C1035      C1040   1.518       .  S
C1036      C1037   1.409       .  A
C1036      H1041   1.083       .  S
C1037      C1038   1.429       .  A
C1038      C1042   1.523       .  S
C1039      C1044   1.416       .  A
C1039      C1048   1.400       .  A
C1040      F1056   1.382       .  S
C1040      F1057   1.382       .  S
C1040      F1058   1.384       .  S
C1042      F1053   1.383       .  S
C1042      F1054   1.385       .  S
C1042      F1055   1.384       .  S
C1044      C1045   1.409       .  A
C1044      C1049   1.519       .  S
C1045      C1046   1.405       .  A
C1045      H1050   1.083       .  S
C1046      C1047   1.423       .  A
C1047      C1048   1.406       .  A
C1047      C1051   1.521       .  S
C1048      H1052   1.083       .  S
C1049      F1062   1.384       .  S
C1049      F1063   1.382       .  S
C1049      F1064   1.382       .  S
C1051      F1059   1.383       .  S
C1051      F1060   1.383       .  S
C1051      F1061   1.385       .  S
C1065      C1066   1.398       .  A
C1065      C1070   1.404       .  A
C1065      H1075   1.084       .  S
C1066      C1071   1.482       .  S
C1066      C1067   1.413       .  A
C1067      C1068   1.409       .  A
C1067      C1072   1.518       .  S
C1068      C1069   1.408       .  A
C1068      H1073   1.083       .  S
C1069      C1070   1.426       .  A
C1070      C1074   1.523       .  S
C1071      C1076   1.415       .  A
C1071      C1080   1.402       .  A
C1072      F1088   1.383       .  S
C1072      F1089   1.382       .  S
C1072      F1090   1.384       .  S
C1074      F1085   1.383       .  S
C1074      F1086   1.385       .  S
C1074      F1087   1.384       .  S
C1076      C1077   1.406       .  A
C1076      C1081   1.520       .  S
C1077      C1078   1.404       .  A
C1077      H1082   1.083       .  S
C1078      C1079   1.418       .  A
C1079      C1080   1.407       .  A
C1079      C1083   1.519       .  S
C1080      H1084   1.083       .  S
C1081      F1094   1.384       .  S
C1081      F1095   1.382       .  S
C1081      F1096   1.382       .  S
C1083      F1091   1.385       .  S
C1083      F1092   1.384       .  S
C1083      F1093   1.382       .  S
C1097      C1098   1.399       .  A
C1097      C1102   1.405       .  A
C1097      H1107   1.083       .  S
C1098      C1103   1.485       .  S
C1098      C1099   1.414       .  A
C1099      C1100   1.410       .  A
C1099      C1104   1.518       .  S
C1100      C1101   1.409       .  A
C1100      H1105   1.083       .  S
C1101      C1102   1.427       .  A
C1102      C1106   1.523       .  S
C1103      C1108   1.416       .  A
C1103      C1112   1.401       .  A
C1104      F1120   1.382       .  S
C1104      F1121   1.382       .  S
C1104      F1122   1.385       .  S
C1106      F1117   1.383       .  S
C1106      F1118   1.385       .  S
C1106      F1119   1.383       .  S
C1108      C1109   1.406       .  A
C1108      C1113   1.520       .  S
C1109      C1110   1.405       .  A
C1109      H1114   1.082       .  S
C1110      C1111   1.423       .  A
C1111      C1112   1.408       .  A
C1111      C1115   1.520       .  S
C1112      H1116   1.083       .  S
C1113      F1126   1.385       .  S
C1113      F1127   1.381       .  S
C1113      F1128   1.382       .  S
C1115      F1123   1.385       .  S
C1115      F1124   1.383       .  S
C1115      F1125   1.383       .  S
C1129      C1130   1.400       .  A
C1129      C1134   1.408       .  A
C1129      H1139   1.083       .  S
C1130      C1135   1.488       .  S
C1130      C1131   1.414       .  A
C1131      C1132   1.410       .  A
C1131      C1136   1.519       .  S
C1132      C1133   1.409       .  A
C1132      H1137   1.083       .  S
C1133      C1134   1.427       .  A
C1134      C1138   1.522       .  S
C1135      C1140   1.419       .  A
C1135      C1144   1.401   1_455  A
C1136      F1152   1.382       .  S
C1136      F1153   1.382       .  S
C1136      F1154   1.384       .  S
C1138      F1149   1.385       .  S
C1138      F1150   1.383       .  S
C1138      F1151   1.383       .  S
C1140      C1141   1.410   1_455  A
C1140      C1145   1.520       .  S
C1141      C1142   1.404       .  A
C1141      H1146   1.083       .  S
C1142      C1143   1.417       .  A
C1143      C1144   1.408       .  A
C1143      C1147   1.517       .  S
C1144      H1148   1.083   1_655  S
C1145      F1158   1.385       .  S
C1145      F1159   1.382       .  S
C1145      F1160   1.382       .  S
C1147      F1155   1.381       .  S
C1147      F1156   1.383       .  S
C1147      F1157   1.385       .  S
C1161      C1162   1.401       .  A
C1161      C1166   1.408       .  A
C1161      H1171   1.083       .  S
C1162      C1167   1.490       .  S
C1162      C1163   1.416       .  A
C1163      C1164   1.410       .  A
C1163      C1168   1.518       .  S
C1164      C1165   1.405       .  A
C1164      H1169   1.083       .  S
C1165      C1166   1.420       .  A
C1166      C1170   1.519       .  S
C1167      C1172   1.417       .  A
C1167      C1176   1.403       .  A
C1168      F1184   1.382       .  S
C1168      F1185   1.382       .  S
C1168      F1186   1.385       .  S
C1170      F1181   1.382       .  S
C1170      F1182   1.385       .  S
C1170      F1183   1.383       .  S
C1172      C1173   1.408       .  A
C1172      C1177   1.521       .  S
C1173      C1174   1.404       .  A
C1173      H1178   1.083       .  S
C1174      C1175   1.419       .  A
C1175      C1176   1.413       .  A
C1175      C1179   1.517       .  S
C1176      H1180   1.083       .  S
C1177      F1190   1.384       .  S
C1177      F1191   1.382       .  S
C1177      F1192   1.383       .  S
C1179      F1187   1.382       .  S
C1179      F1188   1.384       .  S
C1179      F1189   1.384       .  S
C1193      C1194   1.401       .  A
C1193      C1198   1.404   1_455  A
C1193      H1203   1.083       .  S
C1194      C1199   1.484       .  S
C1194      C1195   1.416       .  A
C1195      C1196   1.411   1_455  A
C1195      C1200   1.518       .  S
C1196      C1197   1.403       .  A
C1196      H1201   1.083       .  S
C1197      C1198   1.416       .  A
C1198      C1202   1.519       .  S
C1199      C1204   1.418       .  A
C1199      C1208   1.402       .  A
C1200      F1216   1.382       .  S
C1200      F1217   1.382       .  S
C1200      F1218   1.384       .  S
C1202      F1213   1.382       .  S
C1202      F1214   1.385       .  S
C1202      F1215   1.383       .  S
C1204      C1205   1.408       .  A
C1204      C1209   1.520       .  S
C1205      C1206   1.401       .  A
C1205      H1210   1.083       .  S
C1206      C1207   1.415       .  A
C1207      C1208   1.407       .  A
C1207      C1211   1.518       .  S
C1208      H1212   1.083       .  S
C1209      F1222   1.385       .  S
C1209      F1223   1.382   1_455  S
C1209      F1224   1.382       .  S
C1211      F1219   1.382       .  S
C1211      F1220   1.384       .  S
C1211      F1221   1.384       .  S
C1225      C1226   1.403       .  A
C1225      C1230   1.414   1_455  A
C1225      H1235   1.083       .  S
C1226      C1231   1.490       .  S
C1226      C1227   1.416       .  A
C1227      C1228   1.408       .  A
C1227      C1232   1.522       .  S
C1228      C1229   1.407   1_455  A
C1228      H1233   1.083       .  S
C1229      C1230   1.422       .  A
C1230      C1234   1.518       .  S
C1231      C1236   1.417       .  A
C1231      C1240   1.400       .  A
C1232      F1248   1.382       .  S
C1232      F1249   1.381       .  S
C1232      F1250   1.384       .  S
C1234      F1245   1.385       .  S
C1234      F1246   1.383       .  S
C1234      F1247   1.383       .  S
C1236      C1237   1.411       .  A
C1236      C1241   1.519       .  S
C1237      C1238   1.406       .  A
C1237      H1242   1.083       .  S
C1238      C1239   1.422       .  A
C1239      C1240   1.408       .  A
C1239      C1243   1.520       .  S
C1240      H1244   1.083       .  S
C1241      F1254   1.385       .  S
C1241      F1255   1.382       .  S
C1241      F1256   1.381       .  S
C1243      F1251   1.385       .  S
C1243      F1252   1.384       .  S
C1243      F1253   1.382       .  S
C1257      C1258   1.403       .  A
C1257      C1262   1.410   1_455  A
C1257      H1267   1.083       .  S
C1258      C1263   1.487       .  S
C1258      C1259   1.417       .  A
C1259      C1260   1.406   1_545  A
C1259      C1264   1.520       .  S
C1260      C1261   1.402   1_455  A
C1260      H1265   1.084       .  S
C1261      C1262   1.417   1_565  A
C1262      C1266   1.517       .  S
C1263      C1268   1.414       .  A
C1263      C1272   1.400       .  A
C1264      F1280   1.382       .  S
C1264      F1281   1.382       .  S
C1264      F1282   1.385   1_545  S
C1266      F1277   1.382       .  S
C1266      F1278   1.385       .  S
C1266      F1279   1.383   1_545  S
C1268      C1269   1.409       .  A
C1268      C1273   1.519       .  S
C1269      C1270   1.410       .  A
C1269      H1274   1.083       .  S
C1270      C1271   1.424       .  A
C1271      C1272   1.408       .  A
C1271      C1275   1.520       .  S
C1272      H1276   1.083       .  S
C1273      F1286   1.385       .  S
C1273      F1287   1.382   1_455  S
C1273      F1288   1.382   1_455  S
C1275      F1283   1.385       .  S
C1275      F1284   1.384       .  S
C1275      F1285   1.383       .  S
C1289      C1290   1.403       .  A
C1289      C1294   1.405       .  A
C1289      H1299   1.085       .  S
C1290      C1295   1.492       .  S
C1290      C1291   1.418       .  A
C1291      C1292   1.411       .  A
C1291      C1296   1.518       .  S
C1292      C1293   1.403       .  A
C1292      H1297   1.083       .  S
C1293      C1294   1.418       .  A
C1294      C1298   1.519       .  S
C1295      C1300   1.419       .  A
C1295      C1304   1.405       .  A
C1296      F1312   1.382       .  S
C1296      F1313   1.382       .  S
C1296      F1314   1.385       .  S
C1298      F1309   1.384       .  S
C1298      F1310   1.383       .  S
C1298      F1311   1.381       .  S
C1300      C1301   1.410       .  A
C1300      C1305   1.519       .  S
C1301      C1302   1.403       .  A
C1301      H1306   1.083       .  S
C1302      C1303   1.415       .  A
C1303      C1304   1.410       .  A
C1303      C1307   1.517       .  S
C1304      H1308   1.083       .  S
C1305      F1318   1.385       .  S
C1305      F1319   1.382       .  S
C1305      F1320   1.382       .  S
C1307      F1315   1.383       .  S
C1307      F1316   1.383       .  S
C1307      F1317   1.385       .  S
C1321      C1322   1.399       .  A
C1321      C1326   1.405   1_545  A
C1321      H1331   1.083       .  S
C1322      C1327   1.485       .  S
C1322      C1323   1.415       .  A
C1323      C1324   1.410       .  A
C1323      C1328   1.519       .  S
C1324      C1325   1.407   1_545  A
C1324      H1329   1.083       .  S
C1325      C1326   1.423       .  A
C1326      C1330   1.520       .  S
C1327      C1332   1.415       .  A
C1327      C1336   1.400       .  A
C1328      F1344   1.382       .  S
C1328      F1345   1.382       .  S
C1328      F1346   1.384       .  S
C1330      F1341   1.385       .  S
C1330      F1342   1.383       .  S
C1330      F1343   1.383       .  S
C1332      C1333   1.408       .  A
C1332      C1337   1.520       .  S
C1333      C1334   1.406       .  A
C1333      H1338   1.083       .  S
C1334      C1335   1.423       .  A
C1335      C1336   1.407       .  A
C1335      C1339   1.521       .  S
C1336      H1340   1.083       .  S
C1337      F1350   1.385       .  S
C1337      F1351   1.382       .  S
C1337      F1352   1.382       .  S
C1339      F1347   1.385       .  S
C1339      F1348   1.384       .  S
C1339      F1349   1.383       .  S
C1353      C1354   1.400       .  A
C1353      C1358   1.406       .  A
C1353      H1363   1.083       .  S
C1354      C1359   1.486       .  S
C1354      C1355   1.416       .  A
C1355      C1356   1.408       .  A
C1355      C1360   1.518       .  S
C1356      C1357   1.404       .  A
C1356      H1361   1.083   1_545  S
C1357      C1358   1.422       .  A
C1358      C1362   1.521       .  S
C1359      C1364   1.416       .  A
C1359      C1368   1.402       .  A
C1360      F1376   1.382       .  S
C1360      F1377   1.382       .  S
C1360      F1378   1.385   1_545  S
C1362      F1373   1.382       .  S
C1362      F1374   1.385       .  S
C1362      F1375   1.383       .  S
C1364      C1365   1.405       .  A
C1364      C1369   1.521       .  S
C1365      C1366   1.405       .  A
C1365      H1370   1.083       .  S
C1366      C1367   1.421       .  A
C1367      C1368   1.410       .  A
C1367      C1371   1.519       .  S
C1368      H1372   1.083       .  S
C1369      F1382   1.384       .  S
C1369      F1383   1.382       .  S
C1369      F1384   1.382       .  S
C1371      F1379   1.385       .  S
C1371      F1380   1.384       .  S
C1371      F1381   1.382       .  S
C1385      C1386   1.400       .  A
C1385      C1390   1.409       .  A
C1385      H1395   1.084       .  S
C1386      C1391   1.486       .  S
C1386      C1387   1.411       .  A
C1387      C1388   1.407       .  A
C1387      C1392   1.520       .  S
C1388      C1389   1.413       .  A
C1388      H1393   1.082       .  S
C1389      C1390   1.428       .  A
C1390      C1394   1.520       .  S
C1391      C1396   1.417       .  A
C1391      C1400   1.404       .  A
C1392      F1408   1.382       .  S
C1392      F1409   1.382       .  S
C1392      F1410   1.385       .  S
C1394      F1405   1.383       .  S
C1394      F1406   1.385       .  S
C1394      F1407   1.383       .  S
C1396      C1397   1.405       .  A
C1396      C1401   1.520       .  S
C1397      C1398   1.401       .  A
C1397      H1402   1.083       .  S
C1398      C1399   1.414       .  A
C1399      C1400   1.410       .  A
C1399      C1403   1.517   1_545  S
C1400      H1404   1.083       .  S
C1401      F1414   1.384       .  S
C1401      F1415   1.382       .  S
C1401      F1416   1.382       .  S
C1403      F1411   1.384   1_565  S
C1403      F1412   1.383   1_565  S
C1403      F1413   1.381       .  S
C1417      C1418   1.400       .  A
C1417      C1422   1.405       .  A
C1417      H1427   1.083       .  S
C1418      C1423   1.487       .  S
C1418      C1419   1.417       .  A
C1419      C1420   1.411       .  A
C1419      C1424   1.518       .  S
C1420      C1421   1.405       .  A
C1420      H1425   1.083       .  S
C1421      C1422   1.419       .  A
C1422      C1426   1.520       .  S
C1423      C1428   1.416       .  A
C1423      C1432   1.403       .  A
C1424      F1440   1.382       .  S
C1424      F1441   1.383       .  S
C1424      F1442   1.384       .  S
C1426      F1437   1.385       .  S
C1426      F1438   1.382       .  S
C1426      F1439   1.384       .  S
C1428      C1429   1.406       .  A
C1428      C1433   1.520       .  S
C1429      C1430   1.404       .  A
C1429      H1434   1.083       .  S
C1430      C1431   1.420       .  A
C1431      C1432   1.410       .  A
C1431      C1435   1.520       .  S
C1432      H1436   1.083       .  S
C1433      F1446   1.384       .  S
C1433      F1447   1.382       .  S
C1433      F1448   1.382       .  S
C1435      F1443   1.385       .  S
C1435      F1444   1.384       .  S
C1435      F1445   1.383       .  S
C1449      C1450   1.401       .  A
C1449      C1454   1.405       .  A
C1449      H1459   1.085       .  S
C1450      C1455   1.484       .  S
C1450      C1451   1.414       .  A
C1451      C1452   1.407       .  A
C1451      C1456   1.518       .  S
C1452      C1453   1.404       .  A
C1452      H1457   1.083       .  S
C1453      C1454   1.420       .  A
C1454      C1458   1.520       .  S
C1455      C1460   1.415       .  A
C1455      C1464   1.401       .  A
C1456      F1472   1.382       .  S
C1456      F1473   1.382       .  S
C1456      F1474   1.384       .  S
C1458      F1469   1.384       .  S
C1458      F1470   1.383       .  S
C1458      F1471   1.380       .  S
C1460      C1461   1.404       .  A
C1460      C1465   1.522       .  S
C1461      C1462   1.407       .  A
C1461      H1466   1.083       .  S
C1462      C1463   1.425       .  A
C1463      C1464   1.410       .  A
C1463      C1467   1.520       .  S
C1464      H1468   1.083       .  S
C1465      F1478   1.384       .  S
C1465      F1479   1.382       .  S
C1465      F1480   1.382       .  S
C1467      F1475   1.383       .  S
C1467      F1476   1.384       .  S
C1467      F1477   1.385       .  S
C1481      C1482   1.402       .  A
C1481      C1486   1.414       .  A
C1481      H1491   1.083       .  S
C1482      C1487   1.490       .  S
C1482      C1483   1.414       .  A
C1483      C1484   1.407       .  A
C1483      C1488   1.521       .  S
C1484      C1485   1.409       .  A
C1484      H1489   1.083       .  S
C1485      C1486   1.425       .  A
C1486      C1490   1.519       .  S
C1487      C1492   1.415       .  A
C1487      C1496   1.402       .  A
C1488      F1504   1.383       .  S
C1488      F1505   1.382       .  S
C1488      F1506   1.384       .  S
C1490      F1501   1.383       .  S
C1490      F1502   1.385       .  S
C1490      F1503   1.383       .  S
C1492      C1493   1.409       .  A
C1492      C1497   1.519       .  S
C1493      C1494   1.405       .  A
C1493      H1498   1.083       .  S
C1494      C1495   1.422       .  A
C1495      C1496   1.408       .  A
C1495      C1499   1.521       .  S
C1496      H1500   1.085       .  S
C1497      F1510   1.384       .  S
C1497      F1511   1.382       .  S
C1497      F1512   1.382       .  S
C1499      F1507   1.383       .  S
C1499      F1508   1.380       .  S
C1499      F1509   1.383       .  S
C1513      C1514   1.400       .  A
C1513      C1518   1.409   1_455  A
C1513      H1523   1.083       .  S
C1514      C1519   1.484       .  S
C1514      C1515   1.415   1_455  A
C1515      C1516   1.406       .  A
C1515      C1520   1.521       .  S
C1516      C1517   1.406       .  A
C1516      H1521   1.083       .  S
C1517      C1518   1.423       .  A
C1518      C1522   1.519       .  S
C1519      C1524   1.415       .  A
C1519      C1528   1.401       .  A
C1520      F1536   1.382   1_655  S
C1520      F1537   1.382   1_655  S
C1520      F1538   1.385       .  S
C1522      F1533   1.385   1_655  S
C1522      F1534   1.383       .  S
C1522      F1535   1.384       .  S
C1524      C1525   1.406       .  A
C1524      C1529   1.518       .  S
C1525      C1526   1.403       .  A
C1525      H1530   1.083       .  S
C1526      C1527   1.420       .  A
C1527      C1528   1.408       .  A
C1527      C1531   1.520       .  S
C1528      H1532   1.083       .  S
C1529      F1542   1.384       .  S
C1529      F1543   1.383       .  S
C1529      F1544   1.382       .  S
C1531      F1539   1.383       .  S
C1531      F1540   1.383       .  S
C1531      F1541   1.385       .  S
C1545      C1546   1.401       .  A
C1545      C1550   1.408       .  A
C1545      H1555   1.083       .  S
C1546      C1551   1.488       .  S
C1546      C1547   1.414       .  A
C1547      C1548   1.409       .  A
C1547      C1552   1.519       .  S
C1548      C1549   1.408       .  A
C1548      H1553   1.083       .  S
C1549      C1550   1.424       .  A
C1550      C1554   1.521       .  S
C1551      C1556   1.416       .  A
C1551      C1560   1.403       .  A
C1552      F1568   1.382       .  S
C1552      F1569   1.382       .  S
C1552      F1570   1.384       .  S
C1554      F1565   1.383       .  S
C1554      F1566   1.385       .  S
C1554      F1567   1.384       .  S
C1556      C1557   1.406       .  A
C1556      C1561   1.520       .  S
C1557      C1558   1.404       .  A
C1557      H1562   1.083       .  S
C1558      C1559   1.419       .  A
C1559      C1560   1.410       .  A
C1559      C1563   1.518       .  S
C1560      H1564   1.083       .  S
C1561      F1574   1.385       .  S
C1561      F1575   1.382       .  S
C1561      F1576   1.382       .  S
C1563      F1571   1.385       .  S
C1563      F1572   1.383       .  S
C1563      F1573   1.382       .  S
C1577      C1578   1.398       .  A
C1577      C1582   1.405   1_455  A
C1577      H1587   1.084       .  S
C1578      C1583   1.488       .  S
C1578      C1579   1.415       .  A
C1579      C1580   1.413       .  A
C1579      C1584   1.518       .  S
C1580      C1581   1.408   1_455  A
C1580      H1585   1.082       .  S
C1581      C1582   1.424       .  A
C1582      C1586   1.519       .  S
C1583      C1588   1.415       .  A
C1583      C1592   1.404       .  A
C1584      F1600   1.383       .  S
C1584      F1601   1.382       .  S
C1584      F1602   1.384       .  S
C1586      F1597   1.382       .  S
C1586      F1598   1.385       .  S
C1586      F1599   1.384       .  S
C1588      C1589   1.404       .  A
C1588      C1593   1.522       .  S
C1589      C1590   1.406       .  A
C1589      H1594   1.083       .  S
C1590      C1591   1.422       .  A
C1591      C1592   1.414       .  A
C1591      C1595   1.519       .  S
C1592      H1596   1.083       .  S
C1593      F1606   1.385       .  S
C1593      F1607   1.382   1_455  S
C1593      F1608   1.382       .  S
C1595      F1603   1.383       .  S
C1595      F1604   1.384       .  S
C1595      F1605   1.385       .  S
C1609      C1610   1.399       .  A
C1609      C1614   1.406   1_455  A
C1609      H1619   1.083       .  S
C1610      C1615   1.482       .  S
C1610      C1611   1.413       .  A
C1611      C1612   1.408       .  A
C1611      C1616   1.520       .  S
C1612      C1613   1.407   1_455  A
C1612      H1617   1.083       .  S
C1613      C1614   1.422       .  A
C1614      C1618   1.520       .  S
C1615      C1620   1.415       .  A
C1615      C1624   1.403       .  A
C1616      F1632   1.383       .  S
C1616      F1633   1.382       .  S
C1616      F1634   1.384       .  S
C1618      F1629   1.384       .  S
C1618      F1630   1.383       .  S
C1618      F1631   1.383       .  S
C1620      C1621   1.402       .  A
C1620      C1625   1.521       .  S
C1621      C1622   1.403       .  A
C1621      H1626   1.083       .  S
C1622      C1623   1.418       .  A
C1623      C1624   1.409       .  A
C1623      C1627   1.519       .  S
C1624      H1628   1.083       .  S
C1625      F1638   1.385       .  S
C1625      F1639   1.382       .  S
C1625      F1640   1.381       .  S
C1627      F1635   1.385       .  S
C1627      F1636   1.384       .  S
C1627      F1637   1.382       .  S
C1641      C1642   1.401       .  A
C1641      C1646   1.408       .  A
C1641      H1651   1.083       .  S
C1642      C1647   1.486       .  S
C1642      C1643   1.417       .  A
C1643      C1644   1.409   1_455  A
C1643      C1648   1.520       .  S
C1644      C1645   1.403   1_545  A
C1644      H1649   1.083       .  S
C1645      C1646   1.417   1_665  A
C1646      C1650   1.517   1_545  S
C1647      C1652   1.413       .  A
C1647      C1656   1.401       .  A
C1648      F1664   1.382       .  S
C1648      F1665   1.382       .  S
C1648      F1666   1.384   1_455  S
C1650      F1661   1.382       .  S
C1650      F1662   1.385   1_565  S
C1650      F1663   1.383   1_455  S
C1652      C1653   1.404       .  A
C1652      C1657   1.521       .  S
C1653      C1654   1.410       .  A
C1653      H1658   1.082       .  S
C1654      C1655   1.427       .  A
C1655      C1656   1.412       .  A
C1655      C1659   1.521       .  S
C1656      H1660   1.083       .  S
C1657      F1670   1.385       .  S
C1657      F1671   1.382       .  S
C1657      F1672   1.382       .  S
C1659      F1667   1.384       .  S
C1659      F1668   1.383       .  S
C1659      F1669   1.385       .  S
C1673      C1674   1.401       .  A
C1673      C1678   1.410       .  A
C1673      H1683   1.083       .  S
C1674      C1679   1.488       .  S
C1674      C1675   1.417       .  A
C1675      C1676   1.409       .  A
C1675      C1680   1.520       .  S
C1676      C1677   1.406       .  A
C1676      H1681   1.083       .  S
C1677      C1678   1.424       .  A
C1678      C1682   1.521       .  S
C1679      C1684   1.417       .  A
C1679      C1688   1.399       .  A
C1680      F1696   1.382       .  S
C1680      F1697   1.382       .  S
C1680      F1698   1.385       .  S
C1682      F1693   1.385       .  S
C1682      F1694   1.384       .  S
C1682      F1695   1.382       .  S
C1684      C1685   1.412       .  A
C1684      C1689   1.517       .  S
C1685      C1686   1.406       .  A
C1685      H1690   1.083       .  S
C1686      C1687   1.423       .  A
C1687      C1688   1.405       .  A
C1687      C1691   1.522       .  S
C1688      H1692   1.084       .  S
C1689      F1702   1.385       .  S
C1689      F1703   1.382       .  S
C1689      F1704   1.382       .  S
C1691      F1699   1.385       .  S
C1691      F1700   1.384       .  S
C1691      F1701   1.383       .  S
C1705      C1706   1.399       .  A
C1705      C1710   1.411       .  A
C1705      H1715   1.083       .  S
C1706      C1711   1.489       .  S
C1706      C1707   1.415       .  A
C1707      C1708   1.407       .  A
C1707      C1712   1.521       .  S
C1708      C1709   1.410       .  A
C1708      H1713   1.082       .  S
C1709      C1710   1.429       .  A
C1710      C1714   1.521       .  S
C1711      C1716   1.418       .  A
C1711      C1720   1.401       .  A
C1712      F1728   1.382       .  S
C1712      F1729   1.383       .  S
C1712      F1730   1.385       .  S
C1714      F1725   1.383       .  S
C1714      F1726   1.385       .  S
C1714      F1727   1.384       .  S
C1716      C1717   1.410       .  A
C1716      C1721   1.519       .  S
C1717      C1718   1.403   1_545  A
C1717      H1722   1.083       .  S
C1718      C1719   1.419       .  A
C1719      C1720   1.407   1_565  A
C1719      C1723   1.518       .  S
C1720      H1724   1.083       .  S
C1721      F1734   1.384       .  S
C1721      F1735   1.382       .  S
C1721      F1736   1.383       .  S
C1723      F1731   1.385       .  S
C1723      F1732   1.383       .  S
C1723      F1733   1.382       .  S
C1737      C1738   1.401       .  A
C1737      C1742   1.404       .  A
C1737      H1747   1.083       .  S
C1738      C1743   1.486       .  S
C1738      C1739   1.416       .  A
C1739      C1740   1.410       .  A
C1739      C1744   1.518       .  S
C1740      C1741   1.406       .  A
C1740      H1745   1.083       .  S
C1741      C1742   1.420       .  A
C1742      C1746   1.522       .  S
C1743      C1748   1.418       .  A
C1743      C1752   1.402       .  A
C1744      F1760   1.382       .  S
C1744      F1761   1.382       .  S
C1744      F1762   1.384       .  S
C1746      F1757   1.385       .  S
C1746      F1758   1.382       .  S
C1746      F1759   1.384       .  S
C1748      C1749   1.408       .  A
C1748      C1753   1.520       .  S
C1749      C1750   1.402       .  A
C1749      H1754   1.083   1_545  S
C1750      C1751   1.416       .  A
C1751      C1752   1.406       .  A
C1751      C1755   1.518       .  S
C1752      H1756   1.083       .  S
C1753      F1766   1.385   1_545  S
C1753      F1767   1.382       .  S
C1753      F1768   1.382       .  S
C1755      F1763   1.382       .  S
C1755      F1764   1.384       .  S
C1755      F1765   1.385       .  S
C1769      C1770   1.402       .  A
C1769      C1774   1.411       .  A
C1769      H1779   1.083       .  S
C1770      C1775   1.488       .  S
C1770      C1771   1.415       .  A
C1771      C1772   1.407       .  A
C1771      C1776   1.520       .  S
C1772      C1773   1.407       .  A
C1772      H1777   1.083       .  S
C1773      C1774   1.421       .  A
C1774      C1778   1.518   1_545  S
C1775      C1780   1.416       .  A
C1775      C1784   1.401       .  A
C1776      F1792   1.382       .  S
C1776      F1793   1.382       .  S
C1776      F1794   1.385       .  S
C1778      F1789   1.385       .  S
C1778      F1790   1.383       .  S
C1778      F1791   1.383       .  S
C1780      C1781   1.411       .  A
C1780      C1785   1.519       .  S
C1781      C1782   1.405       .  A
C1781      H1786   1.083       .  S
C1782      C1783   1.420       .  A
C1783      C1784   1.408       .  A
C1783      C1787   1.519       .  S
C1784      H1788   1.083       .  S
C1785      F1798   1.385       .  S
C1785      F1799   1.383       .  S
C1785      F1800   1.382       .  S
C1787      F1795   1.382       .  S
C1787      F1796   1.383       .  S
C1787      F1797   1.385       .  S
C1801      C1802   1.401       .  A
C1801      C1806   1.407       .  A
C1801      H1811   1.083       .  S
C1802      C1807   1.486       .  S
C1802      C1803   1.417       .  A
C1803      C1804   1.410       .  A
C1803      C1808   1.520       .  S
C1804      C1805   1.405       .  A
C1804      H1809   1.083       .  S
C1805      C1806   1.422       .  A
C1806      C1810   1.521       .  S
C1807      C1812   1.415       .  A
C1807      C1816   1.398       .  A
C1808      F1824   1.382       .  S
C1808      F1825   1.381       .  S
C1808      F1826   1.385       .  S
C1810      F1821   1.385       .  S
C1810      F1822   1.383       .  S
C1810      F1823   1.384       .  S
C1812      C1813   1.412       .  A
C1812      C1817   1.518       .  S
C1813      C1814   1.408       .  A
C1813      H1818   1.083       .  S
C1814      C1815   1.425       .  A
C1815      C1816   1.405       .  A
C1815      C1819   1.520       .  S
C1816      H1820   1.083       .  S
C1817      F1830   1.385       .  S
C1817      F1831   1.382       .  S
C1817      F1832   1.381       .  S
C1819      F1827   1.385       .  S
C1819      F1828   1.384       .  S
C1819      F1829   1.382       .  S
C1833      C1834   1.401       .  A
C1833      C1838   1.409       .  A
C1833      H1843   1.086       .  S
C1834      C1839   1.483       .  S
C1834      C1835   1.415       .  A
C1835      C1836   1.402       .  A
C1835      C1840   1.520       .  S
C1836      C1837   1.402       .  A
C1836      H1841   1.089       .  S
C1837      C1838   1.421       .  A
C1838      C1842   1.517       .  S
C1839      C1844   1.415       .  A
C1839      C1848   1.400       .  A
C1840      F1856   1.382       .  S
C1840      F1857   1.382       .  S
C1840      F1858   1.385       .  S
C1842      F1853   1.385       .  S
C1842      F1854   1.381       .  S
C1842      F1855   1.383       .  S
C1844      C1845   1.407       .  A
C1844      C1849   1.519       .  S
C1845      C1846   1.404       .  A
C1845      H1850   1.084       .  S
C1846      C1847   1.421       .  A
C1847      C1848   1.407       .  A
C1847      C1851   1.520       .  S
C1848      H1852   1.084       .  S
C1849      F1862   1.384       .  S
C1849      F1863   1.383       .  S
C1849      F1864   1.382       .  S
C1851      F1859   1.385       .  S
C1851      F1860   1.384       .  S
C1851      F1861   1.382       .  S
