geometry optimzed in LAMMPS
_audit_creation_date              2020-11-30 
_audit_creation_method            'lammps2cif' 
_symmetry_space_group_name_H-M    'P1' 
_symmetry_Int_Tables_number       1 
_symmetry_cell_setting            triclinic 
loop_ 
_symmetry_equiv_pos_as_xyz 
  x,y,z 
_cell_length_a                    47.14591806 
_cell_length_b                    47.12444643868289 
_cell_length_c                    35.42448883010814 
_cell_angle_alpha                 89.88736008869681 
_cell_angle_beta                  90.09157585023291 
_cell_angle_gamma                 119.79308965854545 
loop_ 
_atom_site_label 
_atom_site_type_symbol 
_atom_site_fract_x 
_atom_site_fract_y 
_atom_site_fract_z 
_atom_site_charge 
C1          C  0.49873946  0.99948170  0.78677471     0.47300
H2          H  0.49853802  0.99910902  0.81813887    -0.01700
C3          C  0.99945306  0.50004291  0.71365154     0.47400
H4          H  0.99960155  0.50038403  0.68228413    -0.01700
C5          C  0.46960894  0.46941697  0.76959698    -0.15400
C6          C  0.49820411  0.02929471  0.76989231    -0.15200
C7          C  0.02948259  0.50006871  0.76994767    -0.15500
C8          C  0.46997335  0.46962818  0.73069095    -0.15500
C9          C  0.49821767  0.02978460  0.73103339    -0.15100
C10         C  0.02971355  0.50065599  0.73103996    -0.15400
O11         O  0.31125911  0.09830438  0.04799168    -0.76600
C12         C  0.26447686  0.15941528  0.06058687     0.84400
O13         O  0.28660333  0.12948643  0.92422038    -0.77800
O14         O  0.33257804  0.23405498  0.97513052    -0.79200
O15         O  0.40166672  0.21294736  0.04805023    -0.79000
O16         O  0.36527279  0.13083888  0.05283159    -0.77700
Zn17       Zn  0.29534824  0.12507155  0.01919909     1.55700
O18         O  0.36777329  0.23291758  0.05477143    -0.79100
Cd19       Cd  0.37388662  0.16971270  0.01840417     1.59700
Cd20       Cd  0.33131823  0.16579235  0.94415578     1.59600
O21         O  0.39972162  0.16661438  0.97300651    -0.79100
O22         O  0.33186250  0.16557038  0.00070073    -1.89600
Cd23       Cd  0.32886582  0.20379258  0.01968394     1.59900
O24         O  0.36769359  0.15789340  0.92272018    -0.79000
O25         O  0.28544008  0.18784621  0.04893092    -0.77700
C26         C  0.26414082  0.10451952  0.94098719     0.84900
C27         C  0.33920160  0.10416641  0.05989896     0.84500
O28         O  0.26656782  0.13411637  0.05319754    -0.76600
C29         C  0.39496748  0.23416479  0.06100275     0.85300
O30         O  0.26558764  0.09914527  0.97600932    -0.76700
C31         C  0.39327503  0.16037011  0.93806132     0.85500
C32         C  0.33794691  0.23388426  0.93990404     0.85800
O33         O  0.33913823  0.21035396  0.92384661    -0.79100
C34         C  0.36477490  0.36541338  0.85651536     0.05000
C35         C  0.36753664  0.33812244  0.86788951    -0.11200
C36         C  0.34205126  0.31231068  0.88785401     0.02500
C37         C  0.31383326  0.31349684  0.89651218    -0.09700
C38         C  0.31079326  0.34035227  0.88591241     0.05000
C39         C  0.33607252  0.36625999  0.86586008    -0.09100
H40         H  0.38928855  0.33685442  0.86115919     0.10600
H41         H  0.29443563  0.29374819  0.91254879     0.08100
H42         H  0.33372895  0.38732340  0.85846910     0.07900
O43         O  0.13379452  0.36606118  0.05202954    -0.76600
C44         C  0.23509204  0.39225388  0.05875084     0.84400
O45         O  0.15888045  0.37027576  0.92228337    -0.77800
O46         O  0.23169754  0.32922963  0.97158826    -0.79200
O47         O  0.13227856  0.26584490  0.05331556    -0.79000
O48         O  0.09771444  0.31283315  0.04687084    -0.77700
Zn49       Zn  0.17116800  0.37381144  0.01763197     1.55700
O50         O  0.18559903  0.28344032  0.04653466    -0.79100
Cd51       Cd  0.12412295  0.29573466  0.01773074     1.59700
Cd52       Cd  0.16511287  0.33230735  0.94224238     1.59600
O53         O  0.09706332  0.26566043  0.97371653    -0.79100
O54         O  0.16595935  0.33281849  0.99883204    -1.89600
Cd55       Cd  0.20282268  0.32697334  0.01682097     1.59900
O56         O  0.12728311  0.28818462  0.92213317    -0.79000
O57         O  0.23358547  0.36507771  0.05172862    -0.77700
C58         C  0.16224451  0.39561768  0.93915651     0.84900
C59         C  0.10606999  0.34129151  0.05921800     0.84500
O60         O  0.21381654  0.39922667  0.04653891    -0.76600
C61         C  0.15745798  0.26327108  0.05964369     0.85300
O62         O  0.16866329  0.40048429  0.97428899    -0.76700
C63         C  0.10231586  0.26529957  0.93852351     0.85500
C64         C  0.23161576  0.33541884  0.93655641     0.85800
O65         O  0.20880550  0.33838563  0.92111313    -0.79100
C66         C  0.13097536  0.13064954  0.13928216     0.05000
C67         C  0.15890735  0.12898057  0.12830377    -0.11200
C68         C  0.18397140  0.15459180  0.10772889     0.02500
C69         C  0.18129767  0.18177123  0.09770999    -0.09700
C70         C  0.15385479  0.18378879  0.10808351     0.05000
C71         C  0.12870814  0.15840904  0.12885482    -0.09100
H72         H  0.16099557  0.10768781  0.13520248     0.10600
H73         H  0.20056252  0.20134476  0.08135138     0.08100
H74         H  0.10769802  0.16048694  0.13711136     0.07900
C75         C  0.13313003  0.50031817  0.85962068     0.05000
C76         C  0.13218043  0.47085028  0.86977935    -0.11200
C77         C  0.15744050  0.47142009  0.89135567     0.02500
C78         C  0.18376254  0.50121979  0.90274771    -0.09700
C79         C  0.18473785  0.02994277  0.89134841     0.05000
C80         C  0.15936688  0.02961350  0.87021119    -0.09100
H81         H  0.11152762  0.44752665  0.86174554     0.10600
H82         H  0.20307659  0.50153221  0.91978990     0.08100
H83         H  0.16083303  0.05257636  0.86257105     0.07900
C84         C  0.99993347  0.36618030  0.14155260     0.05000
C85         C  0.02996571  0.36892308  0.13048985    -0.11200
C86         C  0.03048969  0.34403734  0.10940212     0.02500
C87         C  0.00125065  0.31626090  0.09941323    -0.09700
C88         C  0.47133191  0.31311262  0.10995477     0.05000
C89         C  0.47056131  0.33794436  0.13095978    -0.09100
H90         H  0.05287605  0.39021190  0.13834054     0.10600
H91         H  0.00177097  0.29725532  0.08266972     0.08100
H92         H  0.44716457  0.33557196  0.13822052     0.07900
C93         C  0.99815812  0.13223967  0.85921569     0.05000
C94         C  0.02767737  0.16011544  0.87009827    -0.11200
C95         C  0.02721545  0.18570844  0.88964833     0.02500
C96         C  0.99744671  0.18360838  0.89863954    -0.09700
C97         C  0.46803744  0.15608140  0.88851723     0.05000
C98         C  0.46824923  0.13039752  0.86883796    -0.09100
H99         H  0.05093754  0.16174183  0.86388558     0.10600
H100        H  0.99715577  0.20325019  0.91427659     0.08100
H101        H  0.44526064  0.10928602  0.86081228     0.07900
C102        C  0.36517942  0.49841495  0.14228951     0.05000
C103        C  0.33817737  0.46851506  0.13056200    -0.11200
C104        C  0.31278926  0.46829457  0.10956658     0.02500
C105        C  0.31413652  0.49768986  0.10021107    -0.09700
C106        C  0.34145007  0.02743457  0.10910998     0.05000
C107        C  0.36680078  0.02804472  0.13052082    -0.09100
H108        H  0.33679403  0.44551804  0.13783696     0.10600
H109        H  0.29470467  0.49743799  0.08346897     0.08100
H110        H  0.38777089  0.05137671  0.13786675     0.07900
O111        O  0.36398110  0.13149533  0.44607616    -0.76600
C112        C  0.39234093  0.23332920  0.43628936     0.84400
O113        O  0.36879006  0.15892516  0.57470037    -0.77800
O114        O  0.33145148  0.23384271  0.52295836    -0.79200
O115        O  0.26471847  0.13339927  0.44357126    -0.79000
O116        O  0.31035400  0.09680386  0.45046070    -0.77700
Zn117      Zn  0.37275047  0.16986215  0.47923927     1.55700
O118        O  0.28377894  0.18708859  0.44953368    -0.79100
Cd119      Cd  0.29429229  0.12452795  0.47912318     1.59700
Cd120      Cd  0.33211804  0.16650575  0.55380550     1.59600
O121        O  0.26454144  0.09871903  0.52413010    -0.79100
O122        O  0.33220475  0.16612384  0.49731207    -1.89600
Cd123      Cd  0.32745284  0.20346579  0.47857990     1.59900
O124        O  0.28788451  0.13018269  0.57468004    -0.79000
O125        O  0.36547999  0.23260157  0.44287889    -0.77700
C126        C  0.39395629  0.16145782  0.55834441     0.84900
C127        C  0.33876639  0.10411468  0.43884831     0.84500
O128        O  0.39875144  0.21187834  0.44932026    -0.76600
C129        C  0.26291618  0.15900205  0.43693062     0.85300
O130        O  0.39914407  0.16741915  0.52314218    -0.76700
C131        C  0.26469148  0.10497067  0.55913806     0.85500
C132        C  0.33794501  0.23416828  0.55794277     0.85800
O133        O  0.34007999  0.21107559  0.57389216    -0.79100
C134        C  0.36713302  0.36571788  0.64226730     0.05000
C135        C  0.33884938  0.36747258  0.63311180    -0.11200
C136        C  0.31322189  0.34211969  0.61281406     0.02500
C137        C  0.31562214  0.31506114  0.60160082    -0.09700
C138        C  0.34340994  0.31300952  0.61014083     0.05000
C139        C  0.36914565  0.33816021  0.63046047    -0.09100
H140        H  0.33666147  0.38832096  0.64184767     0.10600
H141        H  0.29596782  0.29573309  0.58540612     0.08100
H142        H  0.39088578  0.33657545  0.63629444     0.07900
O143        O  0.09812388  0.31167791  0.45665660    -0.76600
C144        C  0.15752100  0.26396858  0.44378568     0.84400
O145        O  0.12857416  0.28978864  0.58176910    -0.77800
O146        O  0.23239079  0.33053504  0.52982359    -0.79200
O147        O  0.21322219  0.40077085  0.45498382    -0.79000
O148        O  0.13146705  0.36534323  0.44940257    -0.77700
Zn149      Zn  0.12453036  0.29589413  0.48607539     1.55700
O150        O  0.23264489  0.36625403  0.45023109    -0.79100
Cd151      Cd  0.16990947  0.37428726  0.48470007     1.59700
Cd152      Cd  0.16607294  0.33352374  0.56061067     1.59600
O153        O  0.16711906  0.40166441  0.52875150    -0.79100
O154        O  0.16528243  0.33240403  0.50397571    -1.89600
Cd155      Cd  0.20267720  0.32777894  0.48524026     1.59900
O156        O  0.15986375  0.37162450  0.58053159    -0.79000
O157        O  0.18610220  0.28456257  0.45530156    -0.77700
C158        C  0.10360719  0.26702964  0.56526919     0.84900
C159        C  0.10451284  0.33933734  0.44321447     0.84500
O160        O  0.13252282  0.26630038  0.45206137    -0.76600
C161        C  0.23424047  0.39345285  0.44292149     0.85300
O162        O  0.09869040  0.26746441  0.52995939    -0.76700
C163        C  0.16183367  0.39661422  0.56405411     0.85500
C164        C  0.23298380  0.33707989  0.56480090     0.85800
O165        O  0.21036788  0.34002722  0.58073806    -0.79100
C166        C  0.13435554  0.00221294  0.64400322     0.05000
C167        C  0.13254200  0.47273707  0.63277150    -0.11200
C168        C  0.15791774  0.47250373  0.61234561     0.02500
C169        C  0.18516816  0.00166055  0.60318122    -0.09700
C170        C  0.18717486  0.03136066  0.61232660     0.05000
C171        C  0.16199580  0.03178350  0.63283939    -0.09100
H172        H  0.11159192  0.44973442  0.64112950     0.10600
H173        H  0.20451130  0.00146898  0.58678998     0.08100
H174        H  0.16351864  0.05499558  0.63914496     0.07900
C175        C  0.99759307  0.13438564  0.64431011     0.05000
C176        C  0.46807173  0.13244262  0.63235763    -0.11200
C177        C  0.46859178  0.15778595  0.61093017     0.02500
C178        C  0.49835182  0.18521406  0.60168879    -0.09700
C179        C  0.02774047  0.18763316  0.61333008     0.05000
C180        C  0.02749528  0.16234018  0.63456197    -0.09100
H181        H  0.44484638  0.11094021  0.63872898     0.10600
H182        H  0.49866550  0.20455705  0.58467741     0.08100
H183        H  0.05047230  0.16445755  0.64342925     0.07900
C184        C  0.50026687  0.36501929  0.35814061     0.05000
C185        C  0.47016390  0.33720950  0.36755508    -0.11200
C186        C  0.46953807  0.31136670  0.38799687     0.02500
C187        C  0.49873946  0.31311463  0.39917709    -0.09700
C188        C  0.02866138  0.34053180  0.39043447     0.05000
C189        C  0.02955631  0.36640105  0.36981957    -0.09100
H190        H  0.44734048  0.33561985  0.35900040     0.10600
H191        H  0.49815223  0.29337206  0.41563538     0.08100
H192        H  0.05291735  0.38786075  0.36379417     0.07900
C193        C  0.13034813  0.13335410  0.35851390     0.05000
C194        C  0.12814724  0.16082141  0.37021882    -0.11200
C195        C  0.15345872  0.18566483  0.39140360     0.02500
C196        C  0.18103620  0.18340560  0.40063088    -0.09700
C197        C  0.18357386  0.15643694  0.38930868     0.05000
C198        C  0.15832788  0.13137432  0.36837358    -0.09100
H199        H  0.10658079  0.16250987  0.36363676     0.10600
H200        H  0.20039853  0.20248588  0.41738528     0.08100
H201        H  0.16053937  0.11051935  0.35968311     0.07900
C202        C  0.36589587  0.99797710  0.35992179     0.05000
C203        C  0.36764377  0.02778612  0.37009210    -0.11200
C204        C  0.34283011  0.02782007  0.39188767     0.02500
C205        C  0.31621056  0.99829821  0.40354168    -0.09700
C206        C  0.31224311  0.46861376  0.39149609     0.05000
C207        C  0.33691077  0.46778452  0.37029101    -0.09100
H208        H  0.38809680  0.05086535  0.36099675     0.10600
H209        H  0.29724587  0.99843594  0.42074701     0.08100
H210        H  0.33498821  0.44440400  0.36396783     0.07900
C211        C  0.49889515  0.49873332  0.21425448     0.47300
H212        H  0.49899818  0.49890481  0.18289071    -0.01700
C213        C  0.49868939  0.49828871  0.28776779     0.47400
H214        H  0.49853203  0.49811361  0.31913144    -0.01700
C215        C  0.02854339  0.02876861  0.23026403    -0.15400
C216        C  0.46850537  0.49784030  0.23150825    -0.15200
C217        C  0.49977276  0.46914620  0.23143567    -0.15500
C218        C  0.02874636  0.02928548  0.26913340    -0.15500
C219        C  0.46831973  0.49733156  0.27036987    -0.15100
C220        C  0.49993839  0.46904115  0.27031390    -0.15400
C221        C  0.42414013  0.51949620  0.34358468    -0.11500
C222        C  0.39115717  0.49637848  0.33659078     0.10700
C223        C  0.38496618  0.97418687  0.30883530    -0.11500
C224        C  0.40980944  0.97410052  0.28734593    -0.11500
C225        C  0.44173245  0.49600225  0.29410995     0.10700
C226        C  0.44914966  0.51919381  0.32267303    -0.11500
H227        H  0.43066584  0.53777280  0.36539795     0.14600
H228        H  0.35984253  0.95607153  0.30284375     0.14600
H229        H  0.40336570  0.95571211  0.26566890     0.14600
H230        H  0.47429305  0.53758073  0.32818527     0.14600
C231        C  0.09268713  0.07370963  0.34484376    -0.11500
C232        C  0.10351794  0.10671328  0.33633729     0.10700
C233        C  0.08879751  0.11405476  0.30619179    -0.11500
C234        C  0.06429110  0.08899825  0.28460635    -0.11500
C235        C  0.05409561  0.05608117  0.29259451     0.10700
C236        C  0.06810154  0.04866440  0.32330885    -0.11500
H237        H  0.10318440  0.06727099  0.36826639     0.14600
H238        H  0.09665518  0.13921612  0.29888572     0.14600
H239        H  0.05334560  0.09534162  0.26157848     0.14600
H240        H  0.06046140  0.02346296  0.33018734     0.14600
C241        C  0.47899647  0.40363349  0.34486001    -0.11500
C242        C  0.50112641  0.39264181  0.33662183     0.10700
C243        C  0.02397259  0.40812868  0.30746996    -0.11500
C244        C  0.02412322  0.43339569  0.28647618    -0.11500
C245        C  0.50129617  0.44358876  0.29398648     0.10700
C246        C  0.47921074  0.42895980  0.32387487    -0.11500
H247        H  0.46151682  0.39264999  0.36759570     0.14600
H248        H  0.04130496  0.40023578  0.30036107     0.14600
H249        H  0.04186238  0.44476000  0.26405347     0.14600
H250        H  0.46154731  0.43657688  0.33037765     0.14600
C251        C  0.05776295  0.21571208  0.60128950    -0.11400
C252        C  0.07999108  0.23961232  0.58683670    -0.13000
C253        C  0.15319288  0.23658770  0.42167397    -0.11400
C254        C  0.15131065  0.21308655  0.40580557    -0.13000
C255        C  0.15792061  0.42022484  0.58571610    -0.11400
C256        C  0.15615234  0.44246337  0.60022601    -0.13000
C257        C  0.26137089  0.41722499  0.42122584    -0.11400
C258        C  0.28474825  0.43919669  0.40574763    -0.13000
C259        C  0.08011634  0.34146056  0.42111887    -0.11400
C260        C  0.05797879  0.34235939  0.40515878    -0.13000
C261        C  0.26056735  0.34151154  0.58668606    -0.11400
C262        C  0.28476880  0.34373626  0.60117732    -0.13000
C263        C  0.41742242  0.15744238  0.58018441    -0.11400
C264        C  0.43912988  0.15571022  0.59617075    -0.13000
C265        C  0.34448986  0.05777285  0.40403059    -0.11400
C266        C  0.34269048  0.08010079  0.41816709    -0.13000
C267        C  0.21441403  0.06087533  0.59796642    -0.11400
C268        C  0.23762953  0.08240077  0.58179642    -0.13000
C269        C  0.21171662  0.15447761  0.40132995    -0.11400
C270        C  0.23556600  0.15585300  0.41569030    -0.13000
C271        C  0.41678134  0.26007689  0.41465952    -0.11400
C272        C  0.43933255  0.28357477  0.40005002    -0.13000
C273        C  0.34298756  0.26176361  0.58004545    -0.11400
C274        C  0.34530754  0.28545000  0.59585771    -0.13000
C275        C  0.40390992  0.47721073  0.15593574    -0.11500
C276        C  0.39234667  0.49886124  0.16447325     0.10700
C277        C  0.40781603  0.02193743  0.19298638    -0.11500
C278        C  0.43291923  0.02213960  0.21431292    -0.11500
C279        C  0.44290546  0.49884928  0.20778731     0.10700
C280        C  0.42903023  0.47732400  0.17727732    -0.11500
H281        H  0.39364430  0.46027720  0.13259397     0.14600
H282        H  0.39988570  0.03928094  0.19987445     0.14600
H283        H  0.44415128  0.03997290  0.23666841     0.14600
H284        H  0.43719068  0.46013856  0.17043166     0.14600
C285        C  0.47585846  0.40990841  0.21413176    -0.11500
C286        C  0.49900250  0.44285252  0.20752890     0.10700
C287        C  0.02167416  0.45065929  0.17823827    -0.11500
C288        C  0.02191274  0.42586901  0.15670125    -0.11500
C289        C  0.99926248  0.39271853  0.16383133     0.10700
C290        C  0.47606363  0.38512165  0.19266452    -0.11500
H291        H  0.45777635  0.40333824  0.23620618     0.14600
H292        H  0.03960269  0.47593622  0.17250599     0.14600
H293        H  0.03973074  0.43269665  0.13429232     0.14600
H294        H  0.45842285  0.35994282  0.19918270     0.14600
C295        C  0.08753686  0.06307833  0.21205480    -0.11500
C296        C  0.05466311  0.05394448  0.20606502     0.10700
C297        C  0.04674006  0.06915246  0.17713238    -0.11500
C298        C  0.07140892  0.09390707  0.15530771    -0.11500
C299        C  0.10451585  0.10370738  0.16176548     0.10700
C300        C  0.11219635  0.08773712  0.19024016    -0.11500
H301        H  0.09413713  0.05131079  0.23391249     0.14600
H302        H  0.02147836  0.06230016  0.17193542     0.14600
H303        H  0.06453212  0.10523908  0.13322814     0.14600
H304        H  0.13736450  0.09477343  0.19626883     0.14600
C305        C  0.05687391  0.21382798  0.90240546    -0.11400
C306        C  0.07894772  0.23778721  0.91692214    -0.13000
C307        C  0.15184460  0.21181708  0.09571169    -0.11400
C308        C  0.15367524  0.23578675  0.08111311    -0.13000
C309        C  0.15840452  0.41962677  0.91820792    -0.11400
C310        C  0.15637091  0.44178362  0.90383093    -0.13000
C311        C  0.08284573  0.34564368  0.08090202    -0.11400
C312        C  0.06061199  0.34689011  0.09604565    -0.13000
C313        C  0.28562309  0.43840706  0.09565626    -0.11400
C314        C  0.26227742  0.41625977  0.08028630    -0.13000
C315        C  0.28240581  0.34155026  0.89858406    -0.11400
C316        C  0.25861439  0.33942361  0.91395402    -0.13000
C317        C  0.23604854  0.08148698  0.91989821    -0.11400
C318        C  0.21215152  0.05982102  0.90480258    -0.13000
C319        C  0.23662274  0.15545580  0.08130250    -0.11400
C320        C  0.21234970  0.15329604  0.09533247    -0.13000
C321        C  0.34268820  0.26138437  0.91763509    -0.11400
C322        C  0.34462292  0.28496657  0.90181395    -0.13000
C323        C  0.43805550  0.15424039  0.90058493    -0.11400
C324        C  0.41604546  0.15604439  0.91547618    -0.13000
C325        C  0.44179460  0.28492371  0.09694443    -0.11400
C326        C  0.41947708  0.26124898  0.08223971    -0.13000
C327        C  0.34163208  0.07942186  0.08099713    -0.11400
C328        C  0.34294578  0.05704265  0.09582371    -0.13000
C329        C  0.40988204  0.43339393  0.78461262    -0.11500
C330        C  0.44277088  0.44383922  0.79300464     0.10700
C331        C  0.44995836  0.42949166  0.82357740    -0.11500
C332        C  0.42473170  0.40421927  0.84436759    -0.11500
C333        C  0.39174253  0.39295992  0.83521045     0.10700
C334        C  0.38468686  0.40814203  0.80528489    -0.11500
H335        H  0.40364653  0.44458333  0.76174405     0.14600
H336        H  0.47511832  0.43734218  0.83083914     0.14600
H337        H  0.43105463  0.39353973  0.86770058     0.14600
H338        H  0.35963089  0.40007267  0.79733432     0.14600
C339        C  0.02224803  0.08830505  0.78743699    -0.11500
C340        C  0.99901462  0.05542294  0.79400056     0.10700
C341        C  0.47621756  0.04760668  0.82317413    -0.11500
C342        C  0.47593270  0.07244190  0.84458007    -0.11500
C343        C  0.99869793  0.10552914  0.83738487     0.10700
C344        C  0.02197623  0.11307948  0.80870629    -0.11500
H345        H  0.04040859  0.09484994  0.76546020     0.14600
H346        H  0.45821077  0.02234169  0.82882187     0.14600
H347        H  0.45799524  0.06575873  0.86683635     0.14600
H348        H  0.03963671  0.13824234  0.80215066     0.14600
C349        C  0.06894654  0.52077880  0.82422844    -0.11500
C350        C  0.05514826  0.49917646  0.79375990     0.10700
C351        C  0.06625334  0.47711039  0.78590997    -0.11500
C352        C  0.09148287  0.47748107  0.80720105    -0.11500
C353        C  0.10600402  0.49971474  0.83714384     0.10700
C354        C  0.09422196  0.52119657  0.84555075    -0.11500
H355        H  0.06059863  0.53778645  0.83110439     0.14600
H356        H  0.05556114  0.45971310  0.76304483     0.14600
H357        H  0.09826144  0.95947301  0.79973787     0.14600
H358        H  0.10438872  0.53819845  0.86884923     0.14600
C359        C  0.43596608  0.41033003  0.71320565    -0.11500
C360        C  0.44493437  0.44313586  0.70668338     0.10700
C361        C  0.42927959  0.45057090  0.67781638    -0.11500
C362        C  0.40416923  0.42552127  0.65676027    -0.11500
C363        C  0.39446387  0.39252137  0.66390023     0.10700
C364        C  0.41096003  0.38529390  0.69213335    -0.11500
H365        H  0.44803910  0.40406559  0.73502497     0.14600
H366        H  0.43593892  0.47573412  0.67221085     0.14600
H367        H  0.39239875  0.43199251  0.63479567     0.14600
H368        H  0.40403719  0.36020178  0.69854663     0.14600
C369        C  0.01968216  0.07110328  0.67867106    -0.11500
C370        C  0.99701765  0.05558443  0.70781739     0.10700
C371        C  0.47387392  0.06538592  0.71527836    -0.11500
C372        C  0.47403690  0.09088845  0.69473661    -0.11500
C373        C  0.99721901  0.10703701  0.66605849     0.10700
C374        C  0.01991769  0.09667265  0.65814639    -0.11500
H375        H  0.03768149  0.06389871  0.67232868     0.14600
H376        H  0.45581751  0.05346856  0.73727902     0.14600
H377        H  0.45633113  0.09832067  0.70170974     0.14600
H378        H  0.03774230  0.10818690  0.63584264     0.14600
C379        C  0.04930535  0.48025293  0.67740084    -0.11500
C380        C  0.05627733  0.00264939  0.70708250     0.10700
C381        C  0.08907015  0.02539126  0.71513438    -0.11500
C382        C  0.11434101  0.02529117  0.69462350    -0.11500
C383        C  0.10737238  0.00266246  0.66531761     0.10700
C384        C  0.07449741  0.48045901  0.65625144    -0.11500
H385        H  0.02418006  0.46228327  0.67107257     0.14600
H386        H  0.09514290  0.04295126  0.73771232     0.14600
H387        H  0.13938547  0.04253622  0.70218134     0.14600
H388        H  0.06818989  0.46296047  0.63356849     0.14600
C389        C  0.49918600  0.49944229  0.78721258     0.47300
H390        H  0.49897310  0.49932931  0.81857715    -0.01700
C391        C  0.99922205  0.00051302  0.71323836     0.47400
H392        H  0.99945775  0.00096319  0.68187890    -0.01700
C393        C  0.46931120  0.96962333  0.76895679    -0.15400
C394        C  0.49842508  0.52904261  0.77000736    -0.15200
C395        C  0.02899868  0.00015328  0.76954322    -0.15500
C396        C  0.46967618  0.96999524  0.73005632    -0.15500
C397        C  0.49844166  0.52935769  0.73120244    -0.15100
C398        C  0.02941000  0.00099638  0.73066829    -0.15400
O399        O  0.31037481  0.59852925  0.05046595    -0.76600
C400        C  0.26443815  0.66045560  0.06288583     0.84400
O401        O  0.28739157  0.63012390  0.92604370    -0.77800
O402        O  0.33321335  0.73473527  0.97710303    -0.79200
O403        O  0.40117046  0.71252560  0.05134709    -0.79000
O404        O  0.36437467  0.63077434  0.05586070    -0.77700
Zn405      Zn  0.29499993  0.62572176  0.02144576     1.55700
O406        O  0.36790248  0.73332105  0.05718279    -0.79100
Cd407      Cd  0.37352116  0.66967767  0.02141677     1.59700
Cd408      Cd  0.33211741  0.66630356  0.94650597     1.59600
O409        O  0.40006030  0.66669080  0.97680565    -0.79100
O410        O  0.33186803  0.66603384  0.00309582    -1.89600
Cd411      Cd  0.32900674  0.70443329  0.02189413     1.59900
O412        O  0.36881256  0.65830003  0.92588734    -0.79000
O413        O  0.28554303  0.68883258  0.05118883    -0.77700
C414        C  0.26450092  0.60540807  0.94276084     0.84900
C415        C  0.33817024  0.60420118  0.06271788     0.84500
O416        O  0.26630633  0.63504778  0.05537906    -0.76600
C417        C  0.39477336  0.73402499  0.06395857     0.85300
O418        O  0.26547605  0.60018596  0.97792145    -0.76700
C419        C  0.39415797  0.66063064  0.94177076     0.85500
C420        C  0.33910348  0.73462639  0.94200423     0.85800
O421        O  0.34046986  0.71109283  0.92618027    -0.79100
C422        C  0.36616697  0.86585119  0.85743621     0.05000
C423        C  0.36902328  0.83864676  0.86897893    -0.11200
C424        C  0.34376670  0.81310187  0.88950724     0.02500
C425        C  0.31568797  0.81445281  0.89846368    -0.09700
C426        C  0.31259604  0.84122564  0.88765021     0.05000
C427        C  0.33767044  0.86690575  0.86720019    -0.09100
H428        H  0.39062700  0.83721345  0.86191735     0.10600
H429        H  0.29641313  0.79486808  0.91480488     0.08100
H430        H  0.33527143  0.88791939  0.85970829     0.07900
O431        O  0.13397769  0.86579004  0.05233381    -0.76600
C432        C  0.23508481  0.89202487  0.05880392     0.84400
O433        O  0.16070340  0.87159637  0.92194641    -0.77800
O434        O  0.23217717  0.82924139  0.97199008    -0.79200
O435        O  0.13101015  0.76465888  0.04944200    -0.79000
O436        O  0.09763333  0.81278810  0.04564721    -0.77700
Zn437      Zn  0.17129500  0.87394682  0.01749729     1.55700
O438        O  0.18474520  0.78316145  0.04597793    -0.79100
Cd439      Cd  0.12373590  0.79595185  0.01513430     1.59700
Cd440      Cd  0.16682786  0.83368901  0.94148727     1.59600
O441        O  0.09687742  0.76783988  0.96953102    -0.79100
O442        O  0.16626531  0.83318898  0.99803867    -1.89600
Cd443      Cd  0.20272025  0.82690250  0.01662301     1.59900
O444        O  0.12922453  0.79050852  0.91948538    -0.79000
O445        O  0.23336417  0.86472790  0.05193388    -0.77700
C446        C  0.16284078  0.89626922  0.93912732     0.84900
C447        C  0.10615354  0.84097839  0.05905580     0.84500
O448        O  0.21401412  0.89920403  0.04637254    -0.76600
C449        C  0.15614453  0.76239385  0.05731993     0.85300
O450        O  0.16845854  0.90074577  0.97445078    -0.76700
C451        C  0.10316633  0.76803277  0.93452148     0.85500
C452        C  0.23301993  0.83631437  0.93711491     0.85800
O453        O  0.21083365  0.84006568  0.92128871    -0.79100
C454        C  0.13081122  0.63176254  0.14156695     0.05000
C455        C  0.15914338  0.63044229  0.13154172    -0.11200
C456        C  0.18393805  0.65567895  0.11021903     0.02500
C457        C  0.18065467  0.68220358  0.09875976    -0.09700
C458        C  0.15283817  0.68387358  0.10822087     0.05000
C459        C  0.12791764  0.65882094  0.12958409    -0.09100
H460        H  0.16166018  0.60961547  0.13960762     0.10600
H461        H  0.19969856  0.70148317  0.08186770     0.08100
H462        H  0.10655281  0.66056459  0.13702436     0.07900
C463        C  0.13228072  0.99961904  0.85880614     0.05000
C464        C  0.13127850  0.97015691  0.86911411    -0.11200
C465        C  0.15676384  0.97082951  0.89031068     0.02500
C466        C  0.18330927  0.00062203  0.90114437    -0.09700
C467        C  0.18522214  0.53059917  0.89296670     0.05000
C468        C  0.16000658  0.53028579  0.87148496    -0.09100
H469        H  0.11044741  0.94680595  0.86152632     0.10600
H470        H  0.20277068  0.00097583  0.91793917     0.08100
H471        H  0.16144397  0.55324570  0.86388793     0.07900
C472        C  0.00053640  0.86540238  0.14372770     0.05000
C473        C  0.03051656  0.86824445  0.13221217    -0.11200
C474        C  0.03091971  0.84315400  0.11134954     0.02500
C475        C  0.00158044  0.81518241  0.10200828    -0.09700
C476        C  0.47175217  0.81208912  0.11293269     0.05000
C477        C  0.47114107  0.83701710  0.13379135    -0.09100
H478        H  0.05342632  0.88980380  0.13943548     0.10600
H479        H  0.00193175  0.79606898  0.08531225     0.08100
H480        H  0.44780039  0.83467165  0.14132076     0.07900
C481        C  0.99877307  0.63420675  0.85742161     0.05000
C482        C  0.02819883  0.66400921  0.86432927    -0.11200
C483        C  0.02797617  0.68942681  0.88471794     0.02500
C484        C  0.99851363  0.68630393  0.89691479    -0.09700
C485        C  0.46925003  0.65760551  0.89023243     0.05000
C486        C  0.46931666  0.63146120  0.87151783    -0.09100
H487        H  0.05150309  0.66800143  0.85437644     0.10600
H488        H  0.99843964  0.70602882  0.91261992     0.08100
H489        H  0.44621817  0.60914793  0.86893514     0.07900
C490        C  0.36552119  0.99857588  0.14136565     0.05000
C491        C  0.33829574  0.96858960  0.13028706    -0.11200
C492        C  0.31305943  0.96824019  0.10885975     0.02500
C493        C  0.31474637  0.99760761  0.09850552    -0.09700
C494        C  0.34065760  0.52743805  0.11133060     0.05000
C495        C  0.36613647  0.52793576  0.13238789    -0.09100
H496        H  0.33665141  0.94562526  0.13833166     0.10600
H497        H  0.29541627  0.99725663  0.08146322     0.08100
H498        H  0.38695335  0.55122798  0.14018915     0.07900
O499        O  0.36454870  0.63187739  0.44435994    -0.76600
C500        C  0.39347389  0.73376867  0.43484015     0.84400
O501        O  0.36973787  0.65940232  0.57335999    -0.77800
O502        O  0.33242706  0.73452098  0.52110596    -0.79200
O503        O  0.26487993  0.63349936  0.44336753    -0.79000
O504        O  0.31093654  0.59724368  0.44913659    -0.77700
Zn505      Zn  0.37351553  0.67017955  0.47780544     1.55700
O506        O  0.28443507  0.68734797  0.44822548    -0.79100
Cd507      Cd  0.29501971  0.62487052  0.47826938     1.59700
Cd508      Cd  0.33302405  0.66720381  0.55264469     1.59600
O509        O  0.26558782  0.59896222  0.52345347    -0.79100
O510        O  0.33303680  0.66660345  0.49608255    -1.89600
Cd511      Cd  0.32837903  0.70391944  0.47691095     1.59900
O512        O  0.28862692  0.63087892  0.57374261    -0.79000
O513        O  0.36650680  0.73294233  0.44108956    -0.77700
C514        C  0.39459638  0.66133913  0.55680435     0.84900
C515        C  0.33925702  0.60453063  0.43721130     0.84500
O516        O  0.39984025  0.71235066  0.44810487    -0.76600
C517        C  0.26316623  0.65910658  0.43640169     0.85300
O518        O  0.39966744  0.66717216  0.52157167    -0.76700
C519        C  0.26556088  0.60542602  0.55836131     0.85500
C520        C  0.33885474  0.73501782  0.55614140     0.85800
O521        O  0.34101512  0.71200602  0.57232438    -0.79100
C522        C  0.36752011  0.86636568  0.64080913     0.05000
C523        C  0.33915730  0.86803486  0.63209068    -0.11200
C524        C  0.31343396  0.84261942  0.61203464     0.02500
C525        C  0.31592116  0.81570199  0.60036534    -0.09700
C526        C  0.34387627  0.81379300  0.60840785     0.05000
C527        C  0.36963528  0.83893635  0.62873486    -0.09100
H528        H  0.33698040  0.88883793  0.64108234     0.10600
H529        H  0.29617917  0.79635531  0.58429002     0.08100
H530        H  0.39145197  0.83745620  0.63444919     0.07900
O531        O  0.09854349  0.81257594  0.45705473    -0.76600
C532        C  0.15638337  0.76315496  0.44615041     0.84400
O533        O  0.12871891  0.79032682  0.58296634    -0.77800
O534        O  0.23184261  0.83015462  0.53070836    -0.79200
O535        O  0.21454400  0.90093515  0.45606888    -0.79000
O536        O  0.13261265  0.86607755  0.44931556    -0.77700
Zn537      Zn  0.12411749  0.79633922  0.48742284     1.55700
O538        O  0.23287699  0.86556814  0.45091927    -0.79100
Cd539      Cd  0.17069978  0.87474682  0.48520310     1.59700
Cd540      Cd  0.16607939  0.83379964  0.56132474     1.59600
O541        O  0.16777079  0.90211552  0.52925061    -0.79100
O542        O  0.16524860  0.83261943  0.50474878    -1.89600
Cd543      Cd  0.20230536  0.82744990  0.48611125     1.59900
O544        O  0.15987059  0.87178971  0.58095917    -0.79000
O545        O  0.18513240  0.78385959  0.45702515    -0.77700
C546        C  0.10324183  0.76798057  0.56684049     0.84900
C547        C  0.10547116  0.84025033  0.44313456     0.84500
O548        O  0.13154826  0.76578321  0.45443268    -0.76600
C549        C  0.23523489  0.89316016  0.44396600     0.85300
O550        O  0.09788538  0.76861246  0.53166992    -0.76700
C551        C  0.16212876  0.89688225  0.56449514     0.85500
C552        C  0.23268933  0.83713766  0.56555797     0.85800
O553        O  0.21031632  0.84047482  0.58147402    -0.79100
C554        C  0.13435608  0.50266159  0.64253928     0.05000
C555        C  0.13253705  0.97231392  0.63415787    -0.11200
C556        C  0.15798721  0.97218524  0.61378790     0.02500
C557        C  0.18508082  0.50196268  0.60157054    -0.09700
C558        C  0.18720359  0.53174022  0.61070997     0.05000
C559        C  0.16201305  0.53221536  0.63123227    -0.09100
H560        H  0.11149616  0.94929241  0.64228461     0.10600
H561        H  0.20441617  0.50169891  0.58524673     0.08100
H562        H  0.16361542  0.55545363  0.63758229     0.07900
C563        C  0.99811803  0.63315850  0.64206263     0.05000
C564        C  0.46858269  0.63063734  0.62888967    -0.11200
C565        C  0.46887505  0.65647279  0.60875057     0.02500
C566        C  0.49843752  0.68472477  0.60129547    -0.09700
C567        C  0.02784170  0.68758192  0.61356945     0.05000
C568        C  0.02782649  0.66203767  0.63403571    -0.09100
H569        H  0.44547361  0.60852513  0.63363228     0.10600
H570        H  0.49861341  0.70442892  0.58517347     0.08100
H571        H  0.05086461  0.66484398  0.64378886     0.07900
C572        C  0.50148818  0.86606636  0.35760621     0.05000
C573        C  0.47142914  0.83808968  0.36681691    -0.11200
C574        C  0.47088566  0.81213070  0.38694110     0.02500
C575        C  0.50015477  0.81393916  0.39797282    -0.09700
C576        C  0.03003683  0.84151563  0.38944580     0.05000
C577        C  0.03082788  0.86748209  0.36915104    -0.09100
H578        H  0.44856732  0.83646261  0.35836602     0.10600
H579        H  0.49964770  0.79413545  0.41421643     0.08100
H580        H  0.05415092  0.88906003  0.36332883     0.07900
C581        C  0.12929144  0.63279543  0.36048414     0.05000
C582        C  0.12699223  0.66004724  0.37277724    -0.11200
C583        C  0.15234038  0.68478451  0.39398435     0.02500
C584        C  0.18012100  0.68269602  0.40262772    -0.09700
C585        C  0.18283149  0.65597085  0.39065154     0.05000
C586        C  0.15749843  0.63097509  0.36968759    -0.09100
H587        H  0.10529048  0.66162981  0.36667171     0.10600
H588        H  0.19952378  0.70172896  0.41938648     0.08100
H589        H  0.15979515  0.61028549  0.36050396     0.07900
C590        C  0.36449665  0.49713430  0.35841356     0.05000
C591        C  0.36668668  0.52722110  0.36820285    -0.11200
C592        C  0.34191813  0.52779546  0.38951322     0.02500
C593        C  0.31483776  0.49853310  0.40091873    -0.09700
C594        C  0.31401222  0.96861561  0.39376687     0.05000
C595        C  0.33872821  0.96833363  0.37202742    -0.09100
H596        H  0.38752058  0.55011010  0.35933451     0.10600
H597        H  0.29593885  0.49905933  0.41786240     0.08100
H598        H  0.33709888  0.94515321  0.36528091     0.07900
C599        C  0.49879913  0.99857583  0.21339857     0.47300
H600        H  0.49859816  0.99832485  0.18203385    -0.01700
C601        C  0.49935633  0.99927769  0.28691566     0.47400
H602        H  0.49952545  0.99955281  0.31827740    -0.01700
C603        C  0.02824268  0.52894512  0.23181935    -0.15400
C604        C  0.46886148  0.99846955  0.23081216    -0.15200
C605        C  0.49942170  0.96903241  0.23110249    -0.15500
C606        C  0.02796563  0.52885146  0.27070968    -0.15500
C607        C  0.46904036  0.99859181  0.26967462    -0.15100
C608        C  0.50001495  0.96955812  0.26998036    -0.15400
C609        C  0.42546742  0.02106554  0.34363695    -0.11500
C610        C  0.39242963  0.99778024  0.33716070     0.10700
C611        C  0.38391563  0.47254566  0.30861250    -0.11500
C612        C  0.40895583  0.47231660  0.28767702    -0.11500
C613        C  0.44266150  0.99769921  0.29351435     0.10700
C614        C  0.45031338  0.02089007  0.32216881    -0.11500
H615        H  0.43216173  0.03926002  0.36558604     0.14600
H616        H  0.35883896  0.45447880  0.30232341     0.14600
H617        H  0.40273187  0.45391741  0.26606144     0.14600
H618        H  0.47550731  0.03925274  0.32746253     0.14600
C619        C  0.09168041  0.57317315  0.34668135    -0.11500
C620        C  0.10225047  0.60617362  0.33849764     0.10700
C621        C  0.08699889  0.61351626  0.30892561    -0.11500
C622        C  0.06241365  0.58846908  0.28739343    -0.11500
C623        C  0.05271616  0.55557229  0.29481087     0.10700
C624        C  0.06703321  0.54813924  0.32518652    -0.11500
H625        H  0.10251529  0.56672874  0.36974238     0.14600
H626        H  0.09457829  0.63867355  0.30192685     0.14600
H627        H  0.05120136  0.59480225  0.26464437     0.14600
H628        H  0.05973064  0.52295105  0.33167839     0.14600
C629        C  0.47982741  0.90444983  0.34466304    -0.11500
C630        C  0.50225488  0.89381845  0.33643298     0.10700
C631        C  0.02527240  0.90974902  0.30754859    -0.11500
C632        C  0.02520192  0.93496690  0.28669580    -0.11500
C633        C  0.50195229  0.94463613  0.29403492     0.10700
C634        C  0.47980853  0.92972376  0.32379143    -0.11500
H635        H  0.46223710  0.89316639  0.36723696     0.14600
H636        H  0.04284933  0.90217412  0.30044248     0.14600
H637        H  0.04296594  0.94656862  0.26434093     0.14600
H638        H  0.46186268  0.93699645  0.33017129     0.14600
C639        C  0.05770920  0.71640273  0.60274308    -0.11400
C640        C  0.07973413  0.74063687  0.58858378    -0.13000
C641        C  0.15177455  0.73542918  0.42459935    -0.11400
C642        C  0.15002762  0.71196789  0.40881921    -0.13000
C643        C  0.15809098  0.92033134  0.58621929    -0.11400
C644        C  0.15619182  0.94229504  0.60120029    -0.13000
C645        C  0.26288623  0.91685726  0.42273756    -0.11400
C646        C  0.28656001  0.93889941  0.40768153    -0.13000
C647        C  0.08143544  0.84258256  0.42051378    -0.11400
C648        C  0.05939283  0.84346290  0.40427072    -0.13000
C649        C  0.26034418  0.84169174  0.58724874    -0.11400
C650        C  0.28474290  0.84403236  0.60121331    -0.13000
C651        C  0.41781588  0.65666110  0.57836100    -0.11400
C652        C  0.43940465  0.65443127  0.59398149    -0.13000
C653        C  0.34426543  0.55802000  0.40179815    -0.11400
C654        C  0.34293684  0.58051285  0.41620379    -0.13000
C655        C  0.21478588  0.56129159  0.59672614    -0.11400
C656        C  0.23832973  0.58286041  0.58095855    -0.13000
C657        C  0.21127244  0.65421467  0.40199391    -0.11400
C658        C  0.23542747  0.65578183  0.41577509    -0.13000
C659        C  0.41808201  0.76060175  0.41336786    -0.11400
C660        C  0.44069386  0.78418386  0.39889479    -0.13000
C661        C  0.34371163  0.76268900  0.57804212    -0.11400
C662        C  0.34585109  0.78633009  0.59383054    -0.13000
C663        C  0.40370456  0.97696130  0.15590442    -0.11500
C664        C  0.39266358  0.99915054  0.16369170     0.10700
C665        C  0.40695914  0.52098272  0.19447278    -0.11500
C666        C  0.43205901  0.52109796  0.21571029    -0.11500
C667        C  0.44323022  0.99936347  0.20711442     0.10700
C668        C  0.42882476  0.97718207  0.17729707    -0.11500
H669        H  0.39304233  0.95952153  0.13308789     0.14600
H670        H  0.39861245  0.53788149  0.20196535     0.14600
H671        H  0.44287255  0.53846960  0.23857527     0.14600
H672        H  0.43658309  0.95958113  0.17103751     0.14600
C673        C  0.47660475  0.90951496  0.21576552    -0.11500
C674        C  0.49872289  0.94248926  0.20770339     0.10700
C675        C  0.02066107  0.95009676  0.17761675    -0.11500
C676        C  0.02128509  0.92515318  0.15681163    -0.11500
C677        C  0.99976100  0.89206297  0.16550430     0.10700
C678        C  0.47725098  0.88459521  0.19508974    -0.11500
H679        H  0.45902135  0.90302323  0.23839885     0.14600
H680        H  0.03779591  0.97536322  0.17073141     0.14600
H681        H  0.03849467  0.93177405  0.13375742     0.14600
H682        H  0.46044700  0.85943370  0.20269974     0.14600
C683        C  0.08754676  0.56531504  0.21562118    -0.11500
C684        C  0.05450561  0.55474453  0.20819399     0.10700
C685        C  0.04654382  0.56894199  0.17814154    -0.11500
C686        C  0.07121885  0.59391363  0.15651701    -0.11500
C687        C  0.10440966  0.60499799  0.16430972     0.10700
C688        C  0.11220784  0.59025409  0.19407866    -0.11500
H689        H  0.09429001  0.55435365  0.23827294     0.14600
H690        H  0.02120736  0.56104793  0.17178329     0.14600
H691        H  0.06429538  0.60433016  0.13345357     0.14600
H692        H  0.13744467  0.59832309  0.20111798     0.14600
C693        C  0.05780128  0.71803671  0.89627945    -0.11400
C694        C  0.07983707  0.74158579  0.91151883    -0.13000
C695        C  0.15025628  0.71119908  0.09433553    -0.11400
C696        C  0.15194510  0.73480865  0.07892215    -0.13000
C697        C  0.15837281  0.91981303  0.91816513    -0.11400
C698        C  0.15576230  0.94140559  0.90324715    -0.13000
C699        C  0.08302249  0.84499560  0.08147094    -0.11400
C700        C  0.06092325  0.84608886  0.09725944    -0.13000
C701        C  0.28573890  0.93821097  0.09548783    -0.11400
C702        C  0.26231645  0.91596899  0.08034138    -0.13000
C703        C  0.28423862  0.84249424  0.90016710    -0.11400
C704        C  0.26033443  0.84040295  0.91514488    -0.13000
C705        C  0.23647129  0.58238277  0.92149541    -0.11400
C706        C  0.21259654  0.56055216  0.90649270    -0.13000
C707        C  0.23672224  0.65667414  0.08387332    -0.11400
C708        C  0.21248416  0.65449708  0.09810716    -0.13000
C709        C  0.34422341  0.76219505  0.91958471    -0.11400
C710        C  0.34634703  0.78579720  0.90359908    -0.13000
C711        C  0.43950998  0.65509837  0.90455720    -0.11400
C712        C  0.41735360  0.65649769  0.91971460    -0.13000
C713        C  0.44203489  0.78409494  0.10011062    -0.11400
C714        C  0.41936897  0.76077633  0.08541033    -0.13000
C715        C  0.34037292  0.57938459  0.08393347    -0.11400
C716        C  0.34188469  0.55707770  0.09866258    -0.13000
C717        C  0.40993290  0.93341905  0.78482068    -0.11500
C718        C  0.44290676  0.94384376  0.79242648     0.10700
C719        C  0.45067680  0.92945586  0.82245249    -0.11500
C720        C  0.42586337  0.90424562  0.84367076    -0.11500
C721        C  0.39274275  0.89309632  0.83544660     0.10700
C722        C  0.38514050  0.90820970  0.80590681    -0.11500
H723        H  0.40333931  0.94460806  0.76227949     0.14600
H724        H  0.47596600  0.93730777  0.82901896     0.14600
H725        H  0.43261371  0.89360602  0.86665942     0.14600
H726        H  0.35995859  0.90016238  0.79861256     0.14600
C727        C  0.02782231  0.58062871  0.80745809    -0.11500
C728        C  0.99848161  0.55492428  0.79371031     0.10700
C729        C  0.46918585  0.55409613  0.80230940    -0.11500
C730        C  0.46928723  0.57977466  0.82213637    -0.11500
C731        C  0.99870417  0.60631642  0.83603978     0.10700
C732        C  0.02795192  0.60568320  0.82886229    -0.11500
H733        H  0.05070578  0.58135254  0.80154487     0.14600
H734        H  0.44614980  0.53389856  0.79273552     0.14600
H735        H  0.44598844  0.57850444  0.82555728     0.14600
H736        H  0.05125741  0.62423892  0.83957503     0.14600
C737        C  0.06857209  0.02075839  0.82358761    -0.11500
C738        C  0.05441196  0.99893609  0.79339693     0.10700
C739        C  0.06496809  0.97641183  0.78577128    -0.11500
C740        C  0.09010498  0.97656356  0.80700063    -0.11500
C741        C  0.10504008  0.99903103  0.83664296     0.10700
C742        C  0.09371945  0.02092095  0.84488818    -0.11500
H743        H  0.06065011  0.03817278  0.83016181     0.14600
H744        H  0.05398490  0.95890485  0.76305237     0.14600
H745        H  0.09998368  0.46068690  0.79981390     0.14600
H746        H  0.10421530  0.03811344  0.86796648     0.14600
C747        C  0.43500479  0.91057784  0.71311711    -0.11500
C748        C  0.44476897  0.94349986  0.70587526     0.10700
C749        C  0.43017671  0.95107190  0.67589830    -0.11500
C750        C  0.40524946  0.92609250  0.65457120    -0.11500
C751        C  0.39472857  0.89305203  0.66254312     0.10700
C752        C  0.41016827  0.88562712  0.69180673    -0.11500
H753        H  0.44634480  0.90413952  0.73563087     0.14600
H754        H  0.43748519  0.97629552  0.66962128     0.14600
H755        H  0.39419110  0.93260239  0.63180846     0.14600
H756        H  0.40255880  0.86045551  0.69874342     0.14600
C757        C  0.02331979  0.57349602  0.68213380    -0.11500
C758        C  0.99799003  0.55537244  0.70775546     0.10700
C759        C  0.47205063  0.56182300  0.71037715    -0.11500
C760        C  0.47218168  0.58701860  0.68929280    -0.11500
C761        C  0.99790077  0.60591702  0.66417553     0.10700
C762        C  0.02332785  0.59852165  0.66058994    -0.11500
H763        H  0.04328194  0.56849400  0.67911031     0.14600
H764        H  0.45141150  0.54714856  0.72845816     0.14600
H765        H  0.45222178  0.59188006  0.69308384     0.14600
H766        H  0.04315693  0.61188705  0.64092213     0.14600
C767        C  0.04918024  0.98073522  0.67708673    -0.11500
C768        C  0.05650994  0.50236086  0.70721306     0.10700
C769        C  0.08930068  0.52559425  0.71451582    -0.11500
C770        C  0.11449103  0.52586831  0.69336495    -0.11500
C771        C  0.10744466  0.50304753  0.66423433     0.10700
C772        C  0.07447144  0.98060507  0.65652219    -0.11500
H773        H  0.02406040  0.96313463  0.67021477     0.14600
H774        H  0.09543853  0.54329962  0.73694103     0.14600
H775        H  0.13954981  0.54351570  0.70036128     0.14600
H776        H  0.06829560  0.96329375  0.63365358     0.14600
C777        C  0.99873936  0.99948169  0.78677455     0.47300
H778        H  0.99853798  0.99910904  0.81813870    -0.01700
C779        C  0.49945307  0.50004312  0.71365143     0.47400
H780        H  0.49960161  0.50038430  0.68228405    -0.01700
C781        C  0.96960907  0.46941680  0.76959716    -0.15400
C782        C  0.99820393  0.02929466  0.76989215    -0.15200
C783        C  0.52948245  0.50006874  0.76994764    -0.15500
C784        C  0.96997342  0.46962797  0.73069113    -0.15500
C785        C  0.99821738  0.02978450  0.73103323    -0.15100
C786        C  0.52971348  0.50065605  0.73103992    -0.15400
O787        O  0.81125896  0.09830436  0.04799168    -0.76600
C788        C  0.76447671  0.15941519  0.06058683     0.84400
O789        O  0.78660333  0.12948661  0.92422034    -0.77800
O790        O  0.83257791  0.23405496  0.97513086    -0.79200
O791        O  0.90166677  0.21294733  0.04805004    -0.79000
O792        O  0.86527266  0.13083876  0.05283148    -0.77700
Zn793      Zn  0.79534816  0.12507157  0.01919904     1.55700
O794        O  0.86777326  0.23291740  0.05477164    -0.79100
Cd795      Cd  0.87388657  0.16971261  0.01840408     1.59700
Cd796      Cd  0.83131820  0.16579247  0.94415577     1.59600
O797        O  0.89972150  0.16661423  0.97300636    -0.79100
O798        O  0.83186246  0.16557039  0.00070073    -1.89600
Cd799      Cd  0.82886577  0.20379251  0.01968414     1.59900
O800        O  0.86769358  0.15789362  0.92272001    -0.79000
O801        O  0.78544005  0.18784614  0.04893109    -0.77700
C802        C  0.76414086  0.10451967  0.94098713     0.84900
C803        C  0.83920145  0.10416635  0.05989894     0.84500
O804        O  0.76656760  0.13411626  0.05319739    -0.76600
C805        C  0.89496750  0.23416468  0.06100275     0.85300
O806        O  0.76558769  0.09914539  0.97600924    -0.76700
C807        C  0.89327496  0.16037016  0.93806113     0.85500
C808        C  0.83794679  0.23388433  0.93990437     0.85800
O809        O  0.83913817  0.21035410  0.92384683    -0.79100
C810        C  0.86477480  0.36541336  0.85651546     0.05000
C811        C  0.86753650  0.33812243  0.86788978    -0.11200
C812        C  0.84205106  0.31231069  0.88785424     0.02500
C813        C  0.81383300  0.31349682  0.89651214    -0.09700
C814        C  0.81079302  0.34035221  0.88591217     0.05000
C815        C  0.83607234  0.36625993  0.86585992    -0.09100
H816        H  0.88928841  0.33685439  0.86115961     0.10600
H817        H  0.79443533  0.29374819  0.91254869     0.08100
H818        H  0.83372878  0.38732330  0.85846882     0.07900
O819        O  0.63379458  0.36606126  0.05202977    -0.76600
C820        C  0.73509201  0.39225371  0.05875097     0.84400
O821        O  0.65888000  0.37027563  0.92228369    -0.77800
O822        O  0.73169740  0.32922958  0.97158799    -0.79200
O823        O  0.63227860  0.26584525  0.05331601    -0.79000
O824        O  0.59771436  0.31283330  0.04687073    -0.77700
Zn825      Zn  0.67116804  0.37381146  0.01763218     1.55700
O826        O  0.68559894  0.28344027  0.04653448    -0.79100
Cd827      Cd  0.62412294  0.29573478  0.01773091     1.59700
Cd828      Cd  0.66511273  0.33230738  0.94224249     1.59600
O829        O  0.59706339  0.26566031  0.97371685    -0.79100
O830        O  0.66595932  0.33281854  0.99883212    -1.89600
Cd831      Cd  0.70282264  0.32697330  0.01682086     1.59900
O832        O  0.62728306  0.28818455  0.92213342    -0.79000
O833        O  0.73358545  0.36507756  0.05172860    -0.77700
C834        C  0.66224423  0.39561761  0.93915683     0.84900
C835        C  0.60606997  0.34129162  0.05921803     0.84500
O836        O  0.71381654  0.39922655  0.04653912    -0.76600
C837        C  0.65745796  0.26327125  0.05964385     0.85300
O838        O  0.66866331  0.40048434  0.97428925    -0.76700
C839        C  0.60231591  0.26529944  0.93852382     0.85500
C840        C  0.73161560  0.33541891  0.93655618     0.85800
O841        O  0.70880536  0.33838581  0.92111303    -0.79100
C842        C  0.63097525  0.13064964  0.13928206     0.05000
C843        C  0.65890720  0.12898065  0.12830363    -0.11200
C844        C  0.68397120  0.15459179  0.10772863     0.02500
C845        C  0.68129747  0.18177122  0.09770970    -0.09700
C846        C  0.65385460  0.18378880  0.10808330     0.05000
C847        C  0.62870796  0.15840907  0.12885462    -0.09100
H848        H  0.66099544  0.10768783  0.13520251     0.10600
H849        H  0.70056225  0.20134468  0.08135111     0.08100
H850        H  0.60769778  0.16048691  0.13711114     0.07900
C851        C  0.63312954  0.50031801  0.85962117     0.05000
C852        C  0.63217992  0.47085014  0.86977988    -0.11200
C853        C  0.65743995  0.47141993  0.89135623     0.02500
C854        C  0.68376202  0.50121963  0.90274822    -0.09700
C855        C  0.68473779  0.02994281  0.89134879     0.05000
C856        C  0.65936678  0.02961346  0.87021158    -0.09100
H857        H  0.61152706  0.44752646  0.86174603     0.10600
H858        H  0.70307606  0.50153203  0.91979041     0.08100
H859        H  0.66083289  0.05257629  0.86257139     0.07900
C860        C  0.49993343  0.36618029  0.14155279     0.05000
C861        C  0.52996569  0.36892305  0.13049008    -0.11200
C862        C  0.53048966  0.34403736  0.10940224     0.02500
C863        C  0.50125062  0.31626093  0.09941327    -0.09700
C864        C  0.97133194  0.31311258  0.10995469     0.05000
C865        C  0.97056134  0.33794435  0.13095966    -0.09100
H866        H  0.55287600  0.39021181  0.13834087     0.10600
H867        H  0.50177093  0.29725545  0.08266978     0.08100
H868        H  0.94716462  0.33557193  0.13822042     0.07900
C869        C  0.49815819  0.13223956  0.85921599     0.05000
C870        C  0.52767744  0.16011532  0.87009853    -0.11200
C871        C  0.52721554  0.18570829  0.88964866     0.02500
C872        C  0.49744681  0.18360823  0.89863988    -0.09700
C873        C  0.96803735  0.15608152  0.88851686     0.05000
C874        C  0.96824915  0.13039766  0.86883759    -0.09100
H875        H  0.55093762  0.16174173  0.86388577     0.10600
H876        H  0.49715589  0.20325012  0.91427702     0.08100
H877        H  0.94526054  0.10928616  0.86081185     0.07900
C878        C  0.86517931  0.49841474  0.14228959     0.05000
C879        C  0.83817726  0.46851481  0.13056223    -0.11200
C880        C  0.81278912  0.46829428  0.10956683     0.02500
C881        C  0.81413639  0.49768955  0.10021119    -0.09700
C882        C  0.84144999  0.02743453  0.10910988     0.05000
C883        C  0.86680082  0.02804472  0.13052052    -0.09100
H884        H  0.83679394  0.44551783  0.13783728     0.10600
H885        H  0.79470449  0.49743763  0.08346903     0.08100
H886        H  0.88777094  0.05137668  0.13786636     0.07900
O887        O  0.86398124  0.13149527  0.44607631    -0.76600
C888        C  0.89234090  0.23332904  0.43628933     0.84400
O889        O  0.86879001  0.15892516  0.57470043    -0.77800
O890        O  0.83145155  0.23384274  0.52295833    -0.79200
O891        O  0.76471861  0.13339942  0.44357092    -0.79000
O892        O  0.81035411  0.09680389  0.45046052    -0.77700
Zn893      Zn  0.87275050  0.16986208  0.47923934     1.55700
O894        O  0.78377903  0.18708870  0.44953376    -0.79100
Cd895      Cd  0.79429237  0.12452801  0.47912295     1.59700
Cd896      Cd  0.83211804  0.16650577  0.55380547     1.59600
O897        O  0.76454145  0.09871905  0.52412980    -0.79100
O898        O  0.83220479  0.16612383  0.49731204    -1.89600
Cd899      Cd  0.82745289  0.20346578  0.47857991     1.59900
O900        O  0.78788446  0.13018265  0.57467981    -0.79000
O901        O  0.86547999  0.23260147  0.44287890    -0.77700
C902        C  0.89395628  0.16145786  0.55834452     0.84900
C903        C  0.83876654  0.10411467  0.43884831     0.84500
O904        O  0.89875141  0.21187819  0.44932025    -0.76600
C905        C  0.76291633  0.15900223  0.43693048     0.85300
O906        O  0.89914409  0.16741920  0.52314229    -0.76700
C907        C  0.76469144  0.10497066  0.55913777     0.85500
C908        C  0.83794503  0.23416832  0.55794276     0.85800
O909        O  0.84007997  0.21107563  0.57389220    -0.79100
C910        C  0.86713317  0.36571815  0.64226687     0.05000
C911        C  0.83884955  0.36747288  0.63311140    -0.11200
C912        C  0.81322204  0.34212002  0.61281366     0.02500
C913        C  0.81562226  0.31506147  0.60160030    -0.09700
C914        C  0.84341006  0.31300983  0.61014030     0.05000
C915        C  0.86914578  0.33816049  0.63045993    -0.09100
H916        H  0.83666165  0.38832130  0.64184738     0.10600
H917        H  0.79596798  0.29573350  0.58540568     0.08100
H918        H  0.89088589  0.33657568  0.63629392     0.07900
O919        O  0.59812384  0.31167811  0.45665684    -0.76600
C920        C  0.65752081  0.26396860  0.44378580     0.84400
O921        O  0.62857403  0.28978869  0.58176922    -0.77800
O922        O  0.73239058  0.33053499  0.52982380    -0.79200
O923        O  0.71322232  0.40077081  0.45498404    -0.79000
O924        O  0.63146717  0.36534339  0.44940270    -0.77700
Zn925      Zn  0.62453024  0.29589422  0.48607552     1.55700
O926        O  0.73264484  0.36625384  0.45023129    -0.79100
Cd927      Cd  0.66990955  0.37428733  0.48470022     1.59700
Cd928      Cd  0.66607282  0.33352377  0.56061077     1.59600
O929        O  0.66711917  0.40166451  0.52875161    -0.79100
O930        O  0.66528234  0.33240404  0.50397583    -1.89600
Cd931      Cd  0.70267703  0.32777883  0.48524045     1.59900
O932        O  0.65986358  0.37162447  0.58053165    -0.79000
O933        O  0.68610198  0.28456246  0.45530186    -0.77700
C934        C  0.60360707  0.26702969  0.56526931     0.84900
C935        C  0.60451289  0.33933756  0.44321468     0.84500
O936        O  0.63252265  0.26630050  0.45206134    -0.76600
C937        C  0.73424053  0.39345272  0.44292173     0.85300
O938        O  0.59869029  0.26746444  0.52995950    -0.76700
C939        C  0.66183364  0.39661425  0.56405419     0.85500
C940        C  0.73298368  0.33707998  0.56480106     0.85800
O941        O  0.71036778  0.34002737  0.58073822    -0.79100
C942        C  0.63435567  0.00221300  0.64400328     0.05000
C943        C  0.63254199  0.47273703  0.63277160    -0.11200
C944        C  0.65791777  0.47250371  0.61234579     0.02500
C945        C  0.68516813  0.00166065  0.60318092    -0.09700
C946        C  0.68717483  0.03136074  0.61232636     0.05000
C947        C  0.66199586  0.03178358  0.63283936    -0.09100
H948        H  0.61159182  0.44973431  0.64112952     0.10600
H949        H  0.70451119  0.00146909  0.58678957     0.08100
H950        H  0.66351872  0.05499566  0.63914501     0.07900
C951        C  0.49759314  0.13438563  0.64431015     0.05000
C952        C  0.96807168  0.13244277  0.63235778    -0.11200
C953        C  0.96859180  0.15778610  0.61093028     0.02500
C954        C  0.99835188  0.18521415  0.60168880    -0.09700
C955        C  0.52774042  0.18763322  0.61333021     0.05000
C956        C  0.52749530  0.16234030  0.63456217    -0.09100
H957        H  0.94484629  0.11094041  0.63872930     0.10600
H958        H  0.99866562  0.20455713  0.58467752     0.08100
H959        H  0.55047236  0.16445786  0.64342962     0.07900
C960        C  0.00026669  0.36501897  0.35814031     0.05000
C961        C  0.97016376  0.33720913  0.36755478    -0.11200
C962        C  0.96953797  0.31136638  0.38799659     0.02500
C963        C  0.99873938  0.31311430  0.39917679    -0.09700
C964        C  0.52866148  0.34053209  0.39043476     0.05000
C965        C  0.52955645  0.36640131  0.36981979    -0.09100
H966        H  0.94734026  0.33561938  0.35900007     0.10600
H967        H  0.99815217  0.29337179  0.41563495     0.08100
H968        H  0.55291754  0.38786100  0.36379428     0.07900
C969        C  0.63034847  0.13335445  0.35851361     0.05000
C970        C  0.62814742  0.16082163  0.37021872    -0.11200
C971        C  0.65345888  0.18566512  0.39140344     0.02500
C972        C  0.68103648  0.18340606  0.40063054    -0.09700
C973        C  0.68357428  0.15643750  0.38930823     0.05000
C974        C  0.65832837  0.13137488  0.36837308    -0.09100
H975        H  0.60658084  0.16250993  0.36363687     0.10600
H976        H  0.70039880  0.20248639  0.41738492     0.08100
H977        H  0.66054001  0.11051999  0.35968246     0.07900
C978        C  0.86589602  0.99797686  0.35992223     0.05000
C979        C  0.86764401  0.02778595  0.37009247    -0.11200
C980        C  0.84283041  0.02781997  0.39188815     0.02500
C981        C  0.81621091  0.99829816  0.40354229    -0.09700
C982        C  0.81224321  0.46861361  0.39149637     0.05000
C983        C  0.83691080  0.46778437  0.37029117    -0.09100
H984        H  0.88809689  0.05086501  0.36099701     0.10600
H985        H  0.79724616  0.99843593  0.42074766     0.08100
H986        H  0.83498825  0.44440384  0.36396808     0.07900
C987        C  0.99889516  0.49873334  0.21425450     0.47300
H988        H  0.99899822  0.49890489  0.18289073    -0.01700
C989        C  0.99868936  0.49828859  0.28776782     0.47400
H990        H  0.99853197  0.49811340  0.31913146    -0.01700
C991        C  0.52854362  0.02876873  0.23026425    -0.15400
C992        C  0.96850533  0.49784023  0.23150829    -0.15200
C993        C  0.99977281  0.46914620  0.23143561    -0.15500
C994        C  0.52874656  0.02928555  0.26913362    -0.15500
C995        C  0.96831969  0.49733141  0.27036991    -0.15100
C996        C  0.99993839  0.46904109  0.27031383    -0.15400
C997        C  0.92414005  0.51949625  0.34358432    -0.11500
C998        C  0.89115711  0.49637829  0.33659071     0.10700
C999        C  0.88496611  0.97418664  0.30883552    -0.11500
C1000       C  0.90980925  0.97410030  0.28734591    -0.11500
C1001       C  0.94173241  0.49600201  0.29411002     0.10700
C1002       C  0.94914957  0.51919383  0.32267274    -0.11500
H1003       H  0.93066575  0.53777305  0.36539735     0.14600
H1004       H  0.85984238  0.95607130  0.30284405     0.14600
H1005       H  0.90336543  0.95571199  0.26566882     0.14600
H1006       H  0.97429298  0.53758098  0.32818473     0.14600
C1007       C  0.59268798  0.07370990  0.34484326    -0.11500
C1008       C  0.60351824  0.10671351  0.33633715     0.10700
C1009       C  0.58879715  0.11405484  0.30619222    -0.11500
C1010       C  0.56429069  0.08899825  0.28460695    -0.11500
C1011       C  0.55409577  0.05608124  0.29259471     0.10700
C1012       C  0.56810231  0.04866458  0.32330850    -0.11500
H1013       H  0.60318570  0.06727136  0.36826546     0.14600
H1014       H  0.59665437  0.13921617  0.29888642     0.14600
H1015       H  0.55334471  0.09534148  0.26157942     0.14600
H1016       H  0.56046260  0.02346317  0.33018666     0.14600
C1017       C  0.97899553  0.40363248  0.34485894    -0.11500
C1018       C  0.00112619  0.39264151  0.33662153     0.10700
C1019       C  0.52397212  0.40812821  0.30746946    -0.11500
C1020       C  0.52412274  0.43339519  0.28647564    -0.11500
C1021       C  0.00129606  0.44358861  0.29398634     0.10700
C1022       C  0.97920986  0.42895887  0.32387387    -0.11500
H1023       H  0.96151535  0.39264845  0.36759393     0.14600
H1024       H  0.54130394  0.40023473  0.30036004     0.14600
H1025       H  0.54186144  0.44475897  0.26405236     0.14600
H1026       H  0.96154592  0.43657540  0.33037605     0.14600
C1027       C  0.55776286  0.21571217  0.60128966    -0.11400
C1028       C  0.57999097  0.23961239  0.58683683    -0.13000
C1029       C  0.65319274  0.23658777  0.42167403    -0.11400
C1030       C  0.65131065  0.21308672  0.40580554    -0.13000
C1031       C  0.65792060  0.42022487  0.58571616    -0.11400
C1032       C  0.65615237  0.44246339  0.60022610    -0.13000
C1033       C  0.76137104  0.41722483  0.42122616    -0.11400
C1034       C  0.78474842  0.43919653  0.40574799    -0.13000
C1035       C  0.58011641  0.34146084  0.42111914    -0.11400
C1036       C  0.55797886  0.34235967  0.40515908    -0.13000
C1037       C  0.76056731  0.34151178  0.58668613    -0.11400
C1038       C  0.78476886  0.34373656  0.60117717    -0.13000
C1039       C  0.91742244  0.15744252  0.58018456    -0.11400
C1040       C  0.93912992  0.15571044  0.59617092    -0.13000
C1041       C  0.84449016  0.05777281  0.40403085    -0.11400
C1042       C  0.84269070  0.08010078  0.41816716    -0.13000
C1043       C  0.71441396  0.06087539  0.59796612    -0.11400
C1044       C  0.73762945  0.08240079  0.58179608    -0.13000
C1045       C  0.71171702  0.15447818  0.40132958    -0.11400
C1046       C  0.73556627  0.15585338  0.41569006    -0.13000
C1047       C  0.91678127  0.26007665  0.41465939    -0.11400
C1048       C  0.93933247  0.28357446  0.40004980    -0.13000
C1049       C  0.84298756  0.26176369  0.58004537    -0.11400
C1050       C  0.84530757  0.28545018  0.59585739    -0.13000
C1051       C  0.90391011  0.47721087  0.15593551    -0.11500
C1052       C  0.89234656  0.49886107  0.16447333     0.10700
C1053       C  0.90781578  0.02193711  0.19298628    -0.11500
C1054       C  0.93291889  0.02213921  0.21431290    -0.11500
C1055       C  0.94290535  0.49884914  0.20778739     0.10700
C1056       C  0.92903044  0.47732417  0.17727707    -0.11500
H1057       H  0.89364471  0.46027758  0.13259349     0.14600
H1058       H  0.89988525  0.03928042  0.19987453     0.14600
H1059       H  0.94415070  0.03997230  0.23666863     0.14600
H1060       H  0.93719117  0.46013902  0.17043113     0.14600
C1061       C  0.97585869  0.40990839  0.21413185    -0.11500
C1062       C  0.99900260  0.44285252  0.20752885     0.10700
C1063       C  0.52167424  0.45065927  0.17823851    -0.11500
C1064       C  0.52191285  0.42586899  0.15670157    -0.11500
C1065       C  0.49926245  0.39271851  0.16383149     0.10700
C1066       C  0.97606382  0.38512163  0.19266455    -0.11500
H1067       H  0.95777669  0.40333819  0.23620637     0.14600
H1068       H  0.53960287  0.47593618  0.17250636     0.14600
H1069       H  0.53973100  0.43269662  0.13429280     0.14600
H1070       H  0.95842313  0.35994280  0.19918280     0.14600
C1071       C  0.58753719  0.06307922  0.21205555    -0.11500
C1072       C  0.55466332  0.05394471  0.20606526     0.10700
C1073       C  0.54674009  0.06915208  0.17713205    -0.11500
C1074       C  0.57140887  0.09390670  0.15530728    -0.11500
C1075       C  0.60451587  0.10370760  0.16176554     0.10700
C1076       C  0.61219658  0.08773800  0.19024081    -0.11500
H1077       H  0.59413762  0.05131216  0.23391363     0.14600
H1078       H  0.52147834  0.06229930  0.17193469     0.14600
H1079       H  0.56453199  0.10523824  0.13322728     0.14600
H1080       H  0.63736479  0.09477480  0.19626978     0.14600
C1081       C  0.55687400  0.21382780  0.90240583    -0.11400
C1082       C  0.57894781  0.23778703  0.91692252    -0.13000
C1083       C  0.65184447  0.21181716  0.09571165    -0.11400
C1084       C  0.65367518  0.23578691  0.08111324    -0.13000
C1085       C  0.65840409  0.41962663  0.91820832    -0.11400
C1086       C  0.65637039  0.44178345  0.90383141    -0.13000
C1087       C  0.58284571  0.34564380  0.08090204    -0.11400
C1088       C  0.56061196  0.34689016  0.09604572    -0.13000
C1089       C  0.78562296  0.43840675  0.09565658    -0.11400
C1090       C  0.76227733  0.41625950  0.08028655    -0.13000
C1091       C  0.78240555  0.34155025  0.89858367    -0.11400
C1092       C  0.75861418  0.33942368  0.91395367    -0.13000
C1093       C  0.73604859  0.08148714  0.91989819    -0.11400
C1094       C  0.71215149  0.05982113  0.90480275    -0.13000
C1095       C  0.73662255  0.15545572  0.08130234    -0.11400
C1096       C  0.71234950  0.15329601  0.09533223    -0.13000
C1097       C  0.84268802  0.26138445  0.91763552    -0.11400
C1098       C  0.84462271  0.28496662  0.90181435    -0.13000
C1099       C  0.93805540  0.15424049  0.90058457    -0.11400
C1100       C  0.91604539  0.15604448  0.91547591    -0.13000
C1101       C  0.94179463  0.28492363  0.09694440    -0.11400
C1102       C  0.91947712  0.26124887  0.08223971    -0.13000
C1103       C  0.84163191  0.07942180  0.08099713    -0.11400
C1104       C  0.84294564  0.05704258  0.09582367    -0.13000
C1105       C  0.90988220  0.43339397  0.78461285    -0.11500
C1106       C  0.94277100  0.44383912  0.79300487     0.10700
C1107       C  0.94995842  0.42949152  0.82357765    -0.11500
C1108       C  0.92473167  0.40421913  0.84436780    -0.11500
C1109       C  0.89174252  0.39295988  0.83521062     0.10700
C1110       C  0.88468696  0.40814207  0.80528506    -0.11500
H1111       H  0.90364676  0.44458344  0.76174431     0.14600
H1112       H  0.97511828  0.43734196  0.83083941     0.14600
H1113       H  0.93105455  0.39353952  0.86770082     0.14600
H1114       H  0.85963102  0.40007280  0.79733444     0.14600
C1115       C  0.52224788  0.08830509  0.78743690    -0.11500
C1116       C  0.49901471  0.05542295  0.79400069     0.10700
C1117       C  0.97621721  0.04760674  0.82317367    -0.11500
C1118       C  0.97593234  0.07244199  0.84457955    -0.11500
C1119       C  0.49869802  0.10552907  0.83738513     0.10700
C1120       C  0.52197607  0.11307946  0.80870625    -0.11500
H1121       H  0.54040832  0.09485004  0.76545989     0.14600
H1122       H  0.95821021  0.02234176  0.82882122     0.14600
H1123       H  0.95799470  0.06575886  0.86683556     0.14600
H1124       H  0.53963639  0.13824239  0.80215044     0.14600
C1125       C  0.56894611  0.52077863  0.82422870    -0.11500
C1126       C  0.55514804  0.49917643  0.79375999     0.10700
C1127       C  0.56625321  0.47711044  0.78591005    -0.11500
C1128       C  0.59148263  0.47748104  0.80720129    -0.11500
C1129       C  0.60600358  0.49971459  0.83714423     0.10700
C1130       C  0.59422144  0.52119635  0.84555117    -0.11500
H1131       H  0.56059813  0.53778622  0.83110467     0.14600
H1132       H  0.55556115  0.45971323  0.76304479     0.14600
H1133       H  0.59826138  0.95947287  0.79973840     0.14600
H1134       H  0.60438804  0.53819810  0.86884969     0.14600
C1135       C  0.93596596  0.41032984  0.71320565    -0.11500
C1136       C  0.94493435  0.44313572  0.70668356     0.10700
C1137       C  0.92927965  0.45057091  0.67781662    -0.11500
C1138       C  0.90416934  0.42552144  0.65676031    -0.11500
C1139       C  0.89446395  0.39252149  0.66390002     0.10700
C1140       C  0.91095999  0.38529384  0.69213313    -0.11500
H1141       H  0.94803889  0.40406528  0.73502494     0.14600
H1142       H  0.93593905  0.47573425  0.67221123     0.14600
H1143       H  0.89239897  0.43199279  0.63479581     0.14600
H1144       H  0.90403710  0.36020165  0.69854622     0.14600
C1145       C  0.51968299  0.07110393  0.67867183    -0.11500
C1146       C  0.49701796  0.05558451  0.70781754     0.10700
C1147       C  0.97387411  0.06538639  0.71527876    -0.11500
C1148       C  0.97403721  0.09088899  0.69473707    -0.11500
C1149       C  0.49721916  0.10703702  0.66605859     0.10700
C1150       C  0.51991845  0.09667327  0.65814712    -0.11500
H1151       H  0.53768269  0.06389985  0.67232997     0.14600
H1152       H  0.95581801  0.05346941  0.73727979     0.14600
H1153       H  0.95633186  0.09832169  0.70171064     0.14600
H1154       H  0.53774339  0.10818788  0.63584392     0.14600
C1155       C  0.54930528  0.48025296  0.67740079    -0.11500
C1156       C  0.55627754  0.00264938  0.70708281     0.10700
C1157       C  0.58907040  0.02539118  0.71513481    -0.11500
C1158       C  0.61434124  0.02529109  0.69462383    -0.11500
C1159       C  0.60737257  0.00266250  0.66531782     0.10700
C1160       C  0.57449736  0.48045902  0.65625144    -0.11500
H1161       H  0.52417997  0.46228334  0.67107244     0.14600
H1162       H  0.59514313  0.04295099  0.73771269     0.14600
H1163       H  0.63938577  0.04253612  0.70218174     0.14600
H1164       H  0.56818987  0.46296050  0.63356848     0.14600
C1165       C  0.99918612  0.49944220  0.78721265     0.47300
H1166       H  0.99897329  0.49932927  0.81857725    -0.01700
C1167       C  0.49922233  0.00051312  0.71323853     0.47400
H1168       H  0.49945809  0.00096335  0.68187907    -0.01700
C1169       C  0.96931108  0.96962328  0.76895670    -0.15400
C1170       C  0.99842506  0.52904245  0.77000740    -0.15200
C1171       C  0.52899879  0.00015325  0.76954346    -0.15500
C1172       C  0.96967596  0.96999513  0.73005624    -0.15500
C1173       C  0.99844157  0.52935744  0.73120247    -0.15100
C1174       C  0.52941021  0.00099641  0.73066854    -0.15400
O1175       O  0.81037481  0.59852904  0.05046566    -0.76600
C1176       C  0.76443816  0.66045545  0.06288573     0.84400
O1177       O  0.78739140  0.63012377  0.92604360    -0.77800
O1178       O  0.83321360  0.73473532  0.97710306    -0.79200
O1179       O  0.90117042  0.71252539  0.05134708    -0.79000
O1180       O  0.86437469  0.63077406  0.05586026    -0.77700
Zn1181     Zn  0.79499996  0.62572164  0.02144566     1.55700
O1182       O  0.86790246  0.73332084  0.05718288    -0.79100
Cd1183     Cd  0.87352116  0.66967754  0.02141659     1.59700
Cd1184     Cd  0.83211732  0.66630345  0.94650582     1.59600
O1185       O  0.90006038  0.66669096  0.97680541    -0.79100
O1186       O  0.83186803  0.66603371  0.00309570    -1.89600
Cd1187     Cd  0.82900679  0.70443317  0.02189409     1.59900
O1188       O  0.86881255  0.65830001  0.92588713    -0.79000
O1189       O  0.78554302  0.68883243  0.05118870    -0.77700
C1190       C  0.76450077  0.60540795  0.94276079     0.84900
C1191       C  0.83817025  0.60420091  0.06271746     0.84500
O1192       O  0.76630640  0.63504766  0.05537903    -0.76600
C1193       C  0.89477333  0.73402475  0.06395864     0.85300
O1194       O  0.76547598  0.60018587  0.97792139    -0.76700
C1195       C  0.89415805  0.66063077  0.94177052     0.85500
C1196       C  0.83910365  0.73462645  0.94200423     0.85800
O1197       O  0.84046985  0.71109282  0.92618018    -0.79100
C1198       C  0.86616687  0.86585119  0.85743621     0.05000
C1199       C  0.86902324  0.83864680  0.86897895    -0.11200
C1200       C  0.84376673  0.81310190  0.88950731     0.02500
C1201       C  0.81568795  0.81445275  0.89846375    -0.09700
C1202       C  0.81259592  0.84122550  0.88765021     0.05000
C1203       C  0.83767027  0.86690566  0.86720018    -0.09100
H1204       H  0.89062705  0.83721352  0.86191732     0.10600
H1205       H  0.79641316  0.79486799  0.91480497     0.08100
H1206       H  0.83527119  0.88791918  0.85970830     0.07900
O1207       O  0.63397765  0.86579004  0.05233386    -0.76600
C1208       C  0.73508478  0.89202475  0.05880408     0.84400
O1209       O  0.66070342  0.87159639  0.92194663    -0.77800
O1210       O  0.73217708  0.82924122  0.97199008    -0.79200
O1211       O  0.63101032  0.76465900  0.04944246    -0.79000
O1212       O  0.59763333  0.81278808  0.04564739    -0.77700
Zn1213     Zn  0.67129499  0.87394674  0.01749750     1.55700
O1214       O  0.68474534  0.78316149  0.04597812    -0.79100
Cd1215     Cd  0.62373596  0.79595181  0.01513460     1.59700
Cd1216     Cd  0.66682775  0.83368895  0.94148743     1.59600
O1217       O  0.59687745  0.76783974  0.96953136    -0.79100
O1218       O  0.66626531  0.83318891  0.99803885    -1.89600
Cd1219     Cd  0.70272029  0.82690243  0.01662309     1.59900
O1220       O  0.62922430  0.79050855  0.91948556    -0.79000
O1221       O  0.73336425  0.86472785  0.05193387    -0.77700
C1222       C  0.66284089  0.89626926  0.93912756     0.84900
C1223       C  0.60615350  0.84097840  0.05905585     0.84500
O1224       O  0.71401402  0.89920386  0.04637284    -0.76600
C1225       C  0.65614471  0.76239396  0.05732028     0.85300
O1226       O  0.66845865  0.90074577  0.97445102    -0.76700
C1227       C  0.60316620  0.76803273  0.93452175     0.85500
C1228       C  0.73301976  0.83631414  0.93711490     0.85800
O1229       O  0.71083346  0.84006547  0.92128875    -0.79100
C1230       C  0.63081118  0.63176238  0.14156671     0.05000
C1231       C  0.65914328  0.63044206  0.13154136    -0.11200
C1232       C  0.68393800  0.65567879  0.11021879     0.02500
C1233       C  0.68065468  0.68220350  0.09875973    -0.09700
C1234       C  0.65283825  0.68387356  0.10822095     0.05000
C1235       C  0.62791767  0.65882086  0.12958406    -0.09100
H1236       H  0.66166000  0.60961519  0.13960710     0.10600
H1237       H  0.69969865  0.70148317  0.08186773     0.08100
H1238       H  0.60655288  0.66056454  0.13702441     0.07900
C1239       C  0.63228067  0.99961896  0.85880659     0.05000
C1240       C  0.63127851  0.97015688  0.86911459    -0.11200
C1241       C  0.65676390  0.97082955  0.89031112     0.02500
C1242       C  0.68330931  0.00062211  0.90114478    -0.09700
C1243       C  0.68522168  0.53059901  0.89296712     0.05000
C1244       C  0.66000612  0.53028565  0.87148540    -0.09100
H1245       H  0.61044744  0.94680588  0.86152686     0.10600
H1246       H  0.70277073  0.00097597  0.91793950     0.08100
H1247       H  0.66144351  0.55324550  0.86388834     0.07900
C1248       C  0.50053637  0.86540260  0.14372755     0.05000
C1249       C  0.53051655  0.86824470  0.13221197    -0.11200
C1250       C  0.53091968  0.84315423  0.11134934     0.02500
C1251       C  0.50158040  0.81518265  0.10200812    -0.09700
C1252       C  0.97175219  0.81208890  0.11293279     0.05000
C1253       C  0.97114112  0.83701688  0.13379143    -0.09100
H1254       H  0.55342626  0.88980402  0.13943524     0.10600
H1255       H  0.50193170  0.79606917  0.08531201     0.08100
H1256       H  0.94780034  0.83467145  0.14132082     0.07900
C1257       C  0.49877302  0.63420682  0.85742163     0.05000
C1258       C  0.52819877  0.66400930  0.86432934    -0.11200
C1259       C  0.52797603  0.68942687  0.88471802     0.02500
C1260       C  0.49851346  0.68630395  0.89691483    -0.09700
C1261       C  0.96925016  0.65760554  0.89023240     0.05000
C1262       C  0.96931675  0.63146120  0.87151782    -0.09100
H1263       H  0.55150297  0.66800155  0.85437664     0.10600
H1264       H  0.49843942  0.70602880  0.91261998     0.08100
H1265       H  0.94621819  0.60914789  0.86893509     0.07900
C1266       C  0.86552126  0.99857588  0.14136528     0.05000
C1267       C  0.83829578  0.96858957  0.13028683    -0.11200
C1268       C  0.81305935  0.96824015  0.10885975     0.02500
C1269       C  0.81474620  0.99760755  0.09850560    -0.09700
C1270       C  0.84065751  0.52743777  0.11133053     0.05000
C1271       C  0.86613640  0.52793553  0.13238784    -0.09100
H1272       H  0.83665153  0.94562536  0.13833135     0.10600
H1273       H  0.79541603  0.99725654  0.08146352     0.08100
H1274       H  0.88695330  0.55122775  0.14018901     0.07900
O1275       O  0.86454869  0.63187740  0.44435976    -0.76600
C1276       C  0.89347368  0.73376878  0.43484027     0.84400
O1277       O  0.86973801  0.65940234  0.57335984    -0.77800
O1278       O  0.83242676  0.73452077  0.52110608    -0.79200
O1279       O  0.76487970  0.63349913  0.44336769    -0.79000
O1280       O  0.81093656  0.59724358  0.44913660    -0.77700
Zn1281     Zn  0.87351547  0.67017956  0.47780529     1.55700
O1282       O  0.78443477  0.68734773  0.44822574    -0.79100
Cd1283     Cd  0.79501965  0.62487039  0.47826941     1.59700
Cd1284     Cd  0.83302407  0.66720370  0.55264471     1.59600
O1285       O  0.76558782  0.59896205  0.52345354    -0.79100
O1286       O  0.83303674  0.66660336  0.49608257    -1.89600
Cd1287     Cd  0.82837883  0.70391929  0.47691105     1.59900
O1288       O  0.78862698  0.63087876  0.57374267    -0.79000
O1289       O  0.86650653  0.73294233  0.44108963    -0.77700
C1290       C  0.89459648  0.66133913  0.55680407     0.84900
C1291       C  0.83925704  0.60453057  0.43721124     0.84500
O1292       O  0.89984008  0.71235077  0.44810491    -0.76600
C1293       C  0.76316593  0.65910634  0.43640194     0.85300
O1294       O  0.89966747  0.66717220  0.52157139    -0.76700
C1295       C  0.76556092  0.60542586  0.55836139     0.85500
C1296       C  0.83885444  0.73501760  0.55614151     0.85800
O1297       O  0.84101497  0.71200587  0.57232445    -0.79100
C1298       C  0.86751979  0.86636545  0.64080926     0.05000
C1299       C  0.83915698  0.86803464  0.63209091    -0.11200
C1300       C  0.81343359  0.84261919  0.61203495     0.02500
C1301       C  0.81592076  0.81570177  0.60036559    -0.09700
C1302       C  0.84387587  0.81379276  0.60840799     0.05000
C1303       C  0.86963492  0.83893610  0.62873498    -0.09100
H1304       H  0.83698012  0.88883775  0.64108257     0.10600
H1305       H  0.79617870  0.79635507  0.58429024     0.08100
H1306       H  0.89145159  0.83745595  0.63444925     0.07900
O1307       O  0.59854343  0.81257606  0.45705499    -0.76600
C1308       C  0.65638329  0.76315505  0.44615041     0.84400
O1309       O  0.62871880  0.79032715  0.58296653    -0.77800
O1310       O  0.73184230  0.83015428  0.53070882    -0.79200
O1311       O  0.71454406  0.90093502  0.45606891    -0.79000
O1312       O  0.63261266  0.86607765  0.44931571    -0.77700
Zn1313     Zn  0.62411745  0.79633928  0.48742297     1.55700
O1314       O  0.73287717  0.86556808  0.45091982    -0.79100
Cd1315     Cd  0.67069985  0.87474686  0.48520316     1.59700
Cd1316     Cd  0.66607928  0.83379980  0.56132485     1.59600
O1317       O  0.66777102  0.90211571  0.52925058    -0.79100
O1318       O  0.66524855  0.83261945  0.50474892    -1.89600
Cd1319     Cd  0.70230528  0.82744977  0.48611156     1.59900
O1320       O  0.65987053  0.87178985  0.58095916    -0.79000
O1321       O  0.68513230  0.78385956  0.45702533    -0.77700
C1322       C  0.60324178  0.76798085  0.56684067     0.84900
C1323       C  0.60547112  0.84025044  0.44313480     0.84500
O1324       O  0.63154819  0.76578336  0.45443263    -0.76600
C1325       C  0.73523505  0.89316005  0.44396634     0.85300
O1326       O  0.59788538  0.76861259  0.53167006    -0.76700
C1327       C  0.66212886  0.89688243  0.56449508     0.85500
C1328       C  0.73268905  0.83713754  0.56555837     0.85800
O1329       O  0.71031614  0.84047495  0.58147427    -0.79100
C1330       C  0.63435605  0.50266153  0.64253942     0.05000
C1331       C  0.63253716  0.97231400  0.63415786    -0.11200
C1332       C  0.65798725  0.97218535  0.61378774     0.02500
C1333       C  0.68508087  0.50196267  0.60157081    -0.09700
C1334       C  0.68720360  0.53174018  0.61071020     0.05000
C1335       C  0.66201303  0.53221531  0.63123245    -0.09100
H1336       H  0.61149629  0.94929249  0.64228465     0.10600
H1337       H  0.70441627  0.50169891  0.58524706     0.08100
H1338       H  0.66361540  0.55545356  0.63758248     0.07900
C1339       C  0.49811816  0.63315900  0.64206314     0.05000
C1340       C  0.96858259  0.63063689  0.62888910    -0.11200
C1341       C  0.96887506  0.65647244  0.60875004     0.02500
C1342       C  0.99843758  0.68472438  0.60129502    -0.09700
C1343       C  0.52784169  0.68758238  0.61356985     0.05000
C1344       C  0.52782657  0.66203820  0.63403614    -0.09100
H1345       H  0.94547359  0.60852482  0.63363161     0.10600
H1346       H  0.99861354  0.70442863  0.58517296     0.08100
H1347       H  0.55086472  0.66484456  0.64378927     0.07900
C1348       C  0.00148819  0.86606650  0.35760638     0.05000
C1349       C  0.97142916  0.83808988  0.36681719    -0.11200
C1350       C  0.97088560  0.81213093  0.38694149     0.02500
C1351       C  0.00015470  0.81393934  0.39797316    -0.09700
C1352       C  0.53003687  0.84151557  0.38944565     0.05000
C1353       C  0.53082788  0.86748203  0.36915094    -0.09100
H1354       H  0.94856725  0.83646281  0.35836625     0.10600
H1355       H  0.99964759  0.79413563  0.41421685     0.08100
H1356       H  0.55415089  0.88906003  0.36332884     0.07900
C1357       C  0.62929138  0.63279557  0.36048405     0.05000
C1358       C  0.62699219  0.66004741  0.37277707    -0.11200
C1359       C  0.65234028  0.68478463  0.39398430     0.02500
C1360       C  0.68012081  0.68269604  0.40262789    -0.09700
C1361       C  0.68283127  0.65597084  0.39065177     0.05000
C1362       C  0.65749830  0.63097517  0.36968766    -0.09100
H1363       H  0.60529047  0.66163002  0.36667142     0.10600
H1364       H  0.69952351  0.70172891  0.41938679     0.08100
H1365       H  0.65979503  0.61028552  0.36050407     0.07900
C1366       C  0.86449658  0.49713413  0.35841350     0.05000
C1367       C  0.86668656  0.52722093  0.36820269    -0.11200
C1368       C  0.84191812  0.52779532  0.38951327     0.02500
C1369       C  0.81483785  0.49853296  0.40091898    -0.09700
C1370       C  0.81401252  0.96861551  0.39376757     0.05000
C1371       C  0.83872841  0.96833345  0.37202803    -0.09100
H1372       H  0.88752034  0.55010991  0.35933416     0.10600
H1373       H  0.79593895  0.49905919  0.41786280     0.08100
H1374       H  0.83709901  0.94515298  0.36528152     0.07900
C1375       C  0.99879897  0.99857565  0.21339839     0.47300
H1376       H  0.99859803  0.99832467  0.18203364    -0.01700
C1377       C  0.99935619  0.99927756  0.28691544     0.47400
H1378       H  0.99952527  0.99955266  0.31827721    -0.01700
C1379       C  0.52824271  0.52894510  0.23181927    -0.15400
C1380       C  0.96886127  0.99846929  0.23081196    -0.15200
C1381       C  0.99942167  0.96903231  0.23110233    -0.15500
C1382       C  0.52796568  0.52885153  0.27070960    -0.15500
C1383       C  0.96904016  0.99859154  0.26967443    -0.15100
C1384       C  0.00001490  0.96955805  0.26998019    -0.15400
C1385       C  0.92546749  0.02106513  0.34363723    -0.11500
C1386       C  0.89242968  0.99777995  0.33716102     0.10700
C1387       C  0.88391560  0.47254519  0.30861279    -0.11500
C1388       C  0.90895583  0.47231612  0.28767736    -0.11500
C1389       C  0.94266135  0.99769893  0.29351427     0.10700
C1390       C  0.95031336  0.02088969  0.32216890    -0.11500
H1391       H  0.93216191  0.03925955  0.36558648     0.14600
H1392       H  0.85883897  0.45447815  0.30232392     0.14600
H1393       H  0.90273193  0.45391676  0.26606198     0.14600
H1394       H  0.97550731  0.03925227  0.32746258     0.14600
C1395       C  0.59168031  0.57317330  0.34668135    -0.11500
C1396       C  0.60225046  0.60617376  0.33849753     0.10700
C1397       C  0.58699898  0.61351636  0.30892539    -0.11500
C1398       C  0.56241377  0.58846918  0.28739318    -0.11500
C1399       C  0.55271622  0.55557238  0.29481076     0.10700
C1400       C  0.56703317  0.54813938  0.32518653    -0.11500
H1401       H  0.60251514  0.56672890  0.36974255     0.14600
H1402       H  0.59457846  0.63867372  0.30192652     0.14600
H1403       H  0.55120157  0.59480230  0.26464406     0.14600
H1404       H  0.55973053  0.52295112  0.33167853     0.14600
C1405       C  0.97982711  0.90444965  0.34466272    -0.11500
C1406       C  0.00225487  0.89381856  0.33643306     0.10700
C1407       C  0.52527217  0.90974870  0.30754826    -0.11500
C1408       C  0.52520174  0.93496665  0.28669555    -0.11500
C1409       C  0.00195225  0.94463612  0.29403481     0.10700
C1410       C  0.97980821  0.92972352  0.32379102    -0.11500
H1411       H  0.96223657  0.89316604  0.36723642     0.14600
H1412       H  0.54284895  0.90217361  0.30044189     0.14600
H1413       H  0.54296552  0.94656816  0.26434058     0.14600
H1414       H  0.96186215  0.93699598  0.33017054     0.14600
C1415       C  0.55770914  0.71640319  0.60274340    -0.11400
C1416       C  0.57973407  0.74063726  0.58858403    -0.13000
C1417       C  0.65177446  0.73542932  0.42459925    -0.11400
C1418       C  0.65002753  0.71196804  0.40881909    -0.13000
C1419       C  0.65809108  0.92033152  0.58621915    -0.11400
C1420       C  0.65619188  0.94229519  0.60120012    -0.13000
C1421       C  0.76288647  0.91685715  0.42273806    -0.11400
C1422       C  0.78656030  0.93889936  0.40768221    -0.13000
C1423       C  0.58143542  0.84258269  0.42051401    -0.11400
C1424       C  0.55939285  0.84346297  0.40427079    -0.13000
C1425       C  0.76034384  0.84169160  0.58724922    -0.11400
C1426       C  0.78474255  0.84403216  0.60121374    -0.13000
C1427       C  0.91781596  0.65666097  0.57836058    -0.11400
C1428       C  0.93940470  0.65443102  0.59398097    -0.13000
C1429       C  0.84426545  0.55801989  0.40179816    -0.11400
C1430       C  0.84293690  0.58051278  0.41620377    -0.13000
C1431       C  0.71478591  0.56129155  0.59672636    -0.11400
C1432       C  0.73832977  0.58286028  0.58095868    -0.13000
C1433       C  0.71127213  0.65421455  0.40199431    -0.11400
C1434       C  0.73542713  0.65578161  0.41577545    -0.13000
C1435       C  0.91808186  0.76060199  0.41336817    -0.11400
C1436       C  0.94069376  0.78418413  0.39889521    -0.13000
C1437       C  0.84371120  0.76268874  0.57804224    -0.11400
C1438       C  0.84585066  0.78632984  0.59383063    -0.13000
C1439       C  0.90370483  0.97696150  0.15590374    -0.11500
C1440       C  0.89266365  0.99915053  0.16369126     0.10700
C1441       C  0.90695869  0.52098225  0.19447317    -0.11500
C1442       C  0.93205857  0.52109752  0.21571068    -0.11500
C1443       C  0.94323007  0.99936326  0.20711418     0.10700
C1444       C  0.92882493  0.97718218  0.17729648    -0.11500
H1445       H  0.89304278  0.95952191  0.13308694     0.14600
H1446       H  0.89861174  0.53788079  0.20196593     0.14600
H1447       H  0.94287190  0.53846897  0.23857585     0.14600
H1448       H  0.93658342  0.95958138  0.17103672     0.14600
C1449       C  0.97660473  0.90951487  0.21576543    -0.11500
C1450       C  0.99872295  0.94248916  0.20770333     0.10700
C1451       C  0.52066091  0.95009691  0.17761667    -0.11500
C1452       C  0.52128494  0.92515336  0.15681149    -0.11500
C1453       C  0.49976097  0.89206315  0.16550424     0.10700
C1454       C  0.97725095  0.88459511  0.19508969    -0.11500
H1455       H  0.95902127  0.90302319  0.23839868     0.14600
H1456       H  0.53779564  0.97536332  0.17073128     0.14600
H1457       H  0.53849441  0.93177425  0.13375720     0.14600
H1458       H  0.96044684  0.85943353  0.20269969     0.14600
C1459       C  0.58754677  0.56531492  0.21562100    -0.11500
C1460       C  0.55450562  0.55474445  0.20819384     0.10700
C1461       C  0.54654380  0.56894192  0.17814142    -0.11500
C1462       C  0.57121883  0.59391353  0.15651683    -0.11500
C1463       C  0.60440963  0.60499782  0.16430950     0.10700
C1464       C  0.61220784  0.59025392  0.19407840    -0.11500
H1465       H  0.59429001  0.55435358  0.23827273     0.14600
H1466       H  0.52120736  0.56104793  0.17178323     0.14600
H1467       H  0.56429538  0.60433006  0.13345348     0.14600
H1468       H  0.63744466  0.59832286  0.20111765     0.14600
C1469       C  0.55780111  0.71803676  0.89627964    -0.11400
C1470       C  0.57983689  0.74158580  0.91151909    -0.13000
C1471       C  0.65025647  0.71119919  0.09433584    -0.11400
C1472       C  0.65194533  0.73480881  0.07892254    -0.13000
C1473       C  0.65837295  0.91981309  0.91816543    -0.11400
C1474       C  0.65576241  0.94140566  0.90324753    -0.13000
C1475       C  0.58302242  0.84499569  0.08147086    -0.11400
C1476       C  0.56092320  0.84608903  0.09725929    -0.13000
C1477       C  0.78573880  0.93821090  0.09548797    -0.11400
C1478       C  0.76231637  0.91596886  0.08034157    -0.13000
C1479       C  0.78423842  0.84249399  0.90016704    -0.11400
C1480       C  0.76033421  0.84040267  0.91514482    -0.13000
C1481       C  0.73647105  0.58238265  0.92149548    -0.11400
C1482       C  0.71259619  0.56055202  0.90649295    -0.13000
C1483       C  0.73672221  0.65667396  0.08387317    -0.11400
C1484       C  0.71248411  0.65449691  0.09810695    -0.13000
C1485       C  0.84422361  0.76219517  0.91958478    -0.11400
C1486       C  0.84634718  0.78579731  0.90359915    -0.13000
C1487       C  0.93951013  0.65509852  0.90455706    -0.11400
C1488       C  0.91735374  0.65649790  0.91971438    -0.13000
C1489       C  0.94203491  0.78409469  0.10011069    -0.11400
C1490       C  0.91936898  0.76077607  0.08541042    -0.13000
C1491       C  0.84037293  0.57938429  0.08393303    -0.11400
C1492       C  0.84188465  0.55707740  0.09866226    -0.13000
C1493       C  0.90993280  0.93341934  0.78482093    -0.11500
C1494       C  0.94290664  0.94384379  0.79242647     0.10700
C1495       C  0.95067669  0.92945568  0.82245223    -0.11500
C1496       C  0.92586326  0.90424548  0.84367052    -0.11500
C1497       C  0.89274263  0.89309639  0.83544663     0.10700
C1498       C  0.88514041  0.90821001  0.80590709    -0.11500
H1499       H  0.90333924  0.94460850  0.76227991     0.14600
H1500       H  0.97596588  0.93730738  0.82901847     0.14600
H1501       H  0.93261361  0.89360570  0.86665896     0.14600
H1502       H  0.85995842  0.90016284  0.79861296     0.14600
C1503       C  0.52782236  0.58062900  0.80745778    -0.11500
C1504       C  0.49848165  0.55492441  0.79371029     0.10700
C1505       C  0.96918582  0.55409615  0.80230914    -0.11500
C1506       C  0.96928724  0.57977473  0.82213609    -0.11500
C1507       C  0.49870418  0.60631651  0.83603979     0.10700
C1508       C  0.52795197  0.60568347  0.82886197    -0.11500
H1509       H  0.55070595  0.58135295  0.80154429     0.14600
H1510       H  0.94614982  0.53389875  0.79273512     0.14600
H1511       H  0.94598849  0.57850467  0.82555680     0.14600
H1512       H  0.55125752  0.62423934  0.83957444     0.14600
C1513       C  0.56857205  0.02075826  0.82358796    -0.11500
C1514       C  0.55441199  0.99893599  0.79339724     0.10700
C1515       C  0.56496810  0.97641169  0.78577166    -0.11500
C1516       C  0.59010495  0.97656339  0.80700109    -0.11500
C1517       C  0.60504001  0.99903089  0.83664340     0.10700
C1518       C  0.59371937  0.02092081  0.84488862    -0.11500
H1519       H  0.56065006  0.03817263  0.83016212     0.14600
H1520       H  0.55398495  0.95890474  0.76305278     0.14600
H1521       H  0.59998349  0.46068696  0.79981416     0.14600
H1522       H  0.60421514  0.03811322  0.86796691     0.14600
C1523       C  0.93500435  0.91057768  0.71311734    -0.11500
C1524       C  0.94476868  0.94349971  0.70587525     0.10700
C1525       C  0.93017661  0.95107170  0.67589807    -0.11500
C1526       C  0.90524936  0.92609228  0.65457097    -0.11500
C1527       C  0.89472831  0.89305182  0.66254316     0.10700
C1528       C  0.91016785  0.88562694  0.69180696    -0.11500
H1529       H  0.94634423  0.90413938  0.73563123     0.14600
H1530       H  0.93748523  0.97629536  0.66962082     0.14600
H1531       H  0.89419113  0.93260211  0.63180811     0.14600
H1532       H  0.90255824  0.86045529  0.69874382     0.14600
C1533       C  0.52332003  0.57349653  0.68213405    -0.11500
C1534       C  0.49799017  0.55537278  0.70775555     0.10700
C1535       C  0.97205047  0.56182264  0.71037693    -0.11500
C1536       C  0.97218149  0.58701816  0.68929241    -0.11500
C1537       C  0.49790099  0.60591757  0.66417601     0.10700
C1538       C  0.52332812  0.59852227  0.66059036    -0.11500
H1539       H  0.54328220  0.56849456  0.67911055     0.14600
H1540       H  0.95141135  0.54714825  0.72845797     0.14600
H1541       H  0.95222160  0.59187965  0.69308340     0.14600
H1542       H  0.54315720  0.61188775  0.64092262     0.14600
C1543       C  0.54918043  0.98073531  0.67708697    -0.11500
C1544       C  0.55650986  0.50236085  0.70721305     0.10700
C1545       C  0.58930061  0.52559417  0.71451591    -0.11500
C1546       C  0.61449095  0.52586819  0.69336508    -0.11500
C1547       C  0.60744462  0.50304749  0.66423441     0.10700
C1548       C  0.57447160  0.98060513  0.65652235    -0.11500
H1549       H  0.52406049  0.96313472  0.67021490     0.14600
H1550       H  0.59543843  0.54329946  0.73694116     0.14600
H1551       H  0.63954983  0.54351558  0.70036154     0.14600
H1552       H  0.56829578  0.96329402  0.63365381     0.14600
loop_ 
_geom_bond_atom_site_label_1 
_geom_bond_atom_site_label_2 
_geom_bond_distance 
_geom_bond_site_symmetry_2 
_ccdc_geom_bond_type 
C1            H2   1.111       .  S
C1            C6   1.538   1_565  S
C1         C1171   1.538   1_565  S
C1          C393   1.537       .  S
C3            H4   1.111       .  S
C3           C10   1.540   1_655  S
C3         C1173   1.538       .  S
C3          C784   1.539       .  S
C5          C389   1.541       .  S
C5            C8   1.378       .  D
C5          C330   1.492       .  S
C6            C9   1.377       .  D
C6         C1116   1.485       .  S
C7         C1165   1.541   1_455  S
C7           C10   1.378       .  D
C7          C350   1.492       .  S
C8          C779   1.539       .  S
C8          C360   1.487       .  S
C9         C1167   1.540       .  S
C9         C1146   1.491       .  S
C10         C768   1.489       .  S
O11          C27   1.275       .  A
O11         Zn17   2.031       .  S
C12          O28   1.272       .  A
C12          O25   1.275       .  A
C12         C319   1.434       .  S
O13          C26   1.273       .  A
O13         Cd20   2.070       .  S
O14          C32   1.275       .  A
O14         Cd23   2.073   1_556  S
O15          C29   1.275       .  A
O15         Cd19   2.079       .  S
O16          C27   1.272       .  A
O16         Cd19   2.064       .  S
Zn17         O28   2.014       .  S
Zn17         O30   2.025   1_554  S
Zn17         O22   1.941       .  S
O18          C29   1.273       .  A
O18         Cd23   2.071       .  S
Cd19         O21   2.068   1_554  S
Cd19         O22   1.992       .  S
Cd20         O24   2.073       .  S
Cd20         O33   2.071       .  S
Cd20         O22   2.003   1_556  S
O21          C31   1.274       .  A
O22         Cd23   1.994       .  S
Cd23         O25   2.075       .  S
O24          C31   1.274       .  A
C26          O30   1.274       .  A
C26         C317   1.436       .  S
C27         C327   1.435       .  S
C29         C326   1.437       .  S
C31         C324   1.434       .  S
C32          O33   1.273       .  A
C32         C321   1.435       .  S
C34          C35   1.413       .  A
C34          C39   1.413       .  A
C34         C333   1.493       .  S
C35          C36   1.404       .  A
C35          H40   1.083       .  S
C36         C322   1.440       .  S
C36          C37   1.394       .  A
C37          C38   1.393       .  A
C37          H41   1.086       .  S
C38         C315   1.440       .  S
C38          C39   1.403       .  A
C39          H42   1.083       .  S
O43          C59   1.273       .  A
O43         Zn49   2.022       .  S
C44          O60   1.275       .  A
C44          O57   1.272       .  A
C44         C314   1.437       .  S
O45          C58   1.274       .  A
O45         Cd52   2.075       .  S
O46          C64   1.275       .  A
O46         Cd55   2.072   1_556  S
O47          C61   1.271       .  A
O47         Cd51   2.062       .  S
O48          C59   1.273       .  A
O48         Cd51   2.066       .  S
Zn49         O60   2.033       .  S
Zn49         O62   2.023   1_554  S
Zn49         O54   1.941   1_554  S
O50          C61   1.275       .  A
O50         Cd55   2.077       .  S
Cd51         O53   2.067   1_554  S
Cd51         O54   1.992   1_554  S
Cd52         O56   2.080       .  S
Cd52         O65   2.074       .  S
Cd52         O54   2.005       .  S
O53          C63   1.273       .  A
O54         Cd55   1.993   1_556  S
Cd55         O57   2.067       .  S
O56          C63   1.274       .  A
C58          O62   1.274       .  A
C58         C309   1.436       .  S
C59         C311   1.434       .  S
C61         C308   1.433       .  S
C63         C306   1.436       .  S
C64          O65   1.274       .  A
C64         C316   1.436       .  S
C66          C67   1.413       .  A
C66          C71   1.413       .  A
C66         C299   1.493       .  S
C67          C68   1.402       .  A
C67          H72   1.083       .  S
C68         C320   1.439       .  S
C68          C69   1.393       .  A
C69          C70   1.394       .  A
C69          H73   1.086       .  S
C70         C307   1.438       .  S
C70          C71   1.403       .  A
C71          H74   1.083       .  S
C75          C76   1.413       .  A
C75         C468   1.414       .  A
C75         C353   1.494       .  S
C76          C77   1.403       .  A
C76          H81   1.083       .  S
C77         C310   1.441       .  S
C77          C78   1.394       .  A
C78         C467   1.395       .  A
C78          H82   1.086       .  S
C79         C318   1.440       .  S
C79          C80   1.404       .  A
C79         C466   1.393       .  A
C80         C463   1.414   1_545  A
C80          H83   1.083       .  S
C84          C85   1.412   1_655  A
C84         C865   1.414       .  A
C84         C289   1.494       .  S
C85          C86   1.402       .  A
C85          H90   1.083       .  S
C86         C312   1.439       .  S
C86          C87   1.395       .  A
C87         C864   1.394   1_455  A
C87          H91   1.086       .  S
C88         C325   1.442       .  S
C88          C89   1.404       .  A
C88         C863   1.394       .  A
C89         C860   1.414       .  A
C89          H92   1.083       .  S
C93          C94   1.412   1_655  A
C93         C874   1.411       .  A
C93         C343   1.490       .  S
C94          C95   1.401       .  A
C94          H99   1.084       .  S
C95         C305   1.440       .  S
C95          C96   1.394   1_455  A
C96         C873   1.395       .  A
C96         H100   1.086       .  S
C97         C323   1.438       .  S
C97          C98   1.402       .  A
C97         C872   1.395       .  A
C98         C869   1.411       .  A
C98         H101   1.083       .  S
C102        C103   1.413       .  A
C102        C495   1.413       .  A
C102        C276   1.493       .  S
C103        C104   1.404       .  A
C103        H108   1.083       .  S
C104        C313   1.440       .  S
C104        C105   1.394       .  A
C105        C494   1.394       .  A
C105        H109   1.086       .  S
C106        C328   1.440       .  S
C106        C107   1.403       .  A
C106        C493   1.394   1_545  A
C107        C490   1.412   1_545  A
C107        H110   1.084       .  S
O111        C127   1.273       .  A
O111       Zn117   2.021       .  S
C112        O128   1.276       .  A
C112        O125   1.272       .  A
C112        C271   1.435       .  S
O113        C126   1.272       .  A
O113       Cd120   2.067       .  S
O114        C132   1.274       .  A
O114       Cd123   2.073       .  S
O115        C129   1.272       .  A
O115       Cd119   2.068       .  S
O116        C127   1.275       .  A
O116       Cd119   2.074       .  S
Zn117       O128   2.032       .  S
Zn117       O130   2.029       .  S
Zn117       O122   1.940       .  S
O118        C129   1.275       .  A
O118       Cd123   2.076       .  S
Cd119       O121   2.072       .  S
Cd119       O122   1.993       .  S
Cd120       O124   2.068       .  S
Cd120       O133   2.069       .  S
Cd120       O122   2.001       .  S
O121        C131   1.274       .  A
O122       Cd123   1.993       .  S
Cd123       O125   2.062       .  S
O124        C131   1.273       .  A
C126        O130   1.275       .  A
C126        C263   1.436       .  S
C127        C266   1.436       .  S
C129        C270   1.435       .  S
C131        C268   1.433       .  S
C132        O133   1.273       .  A
C132        C273   1.434       .  S
C134        C135   1.414       .  A
C134        C139   1.412       .  A
C134        C363   1.492       .  S
C135        C136   1.404       .  A
C135        H140   1.083       .  S
C136        C262   1.440       .  S
C136        C137   1.394       .  A
C137        C138   1.393       .  A
C137        H141   1.086       .  S
C138        C274   1.438       .  S
C138        C139   1.402       .  A
C139        H142   1.084       .  S
O143        C159   1.274       .  A
O143       Zn149   2.025       .  S
C144        O160   1.272       .  A
C144        O157   1.274       .  A
C144        C253   1.436       .  S
O145        C158   1.274       .  A
O145       Cd152   2.077       .  S
O146        C164   1.274       .  A
O146       Cd155   2.070       .  S
O147        C161   1.275       .  A
O147       Cd151   2.075       .  S
O148        C159   1.272       .  A
O148       Cd151   2.064       .  S
Zn149       O160   2.017       .  S
Zn149       O162   2.018       .  S
Zn149       O154   1.941       .  S
O150        C161   1.272       .  A
O150       Cd155   2.067       .  S
Cd151       O153   2.072       .  S
Cd151       O154   1.994       .  S
Cd152       O156   2.082       .  S
Cd152       O165   2.079       .  S
Cd152       O154   2.007       .  S
O153        C163   1.274       .  A
O154       Cd155   1.996       .  S
Cd155       O157   2.075       .  S
O156        C163   1.275       .  A
C158        O162   1.274       .  A
C158        C252   1.436       .  S
C159        C259   1.434       .  S
C161        C257   1.434       .  S
C163        C255   1.438       .  S
C164        O165   1.274       .  A
C164        C261   1.436       .  S
C166        C171   1.411       .  A
C166        C555   1.413   1_545  A
C166        C383   1.490       .  S
C167        C168   1.404       .  A
C167        C554   1.413       .  A
C167        H172   1.084       .  S
C168        C256   1.442       .  S
C168        C557   1.395       .  A
C169        C170   1.394       .  A
C169        C556   1.394   1_545  A
C169        H173   1.086       .  S
C170        C267   1.438       .  S
C170        C171   1.401       .  A
C171        H174   1.084       .  S
C175        C180   1.413   1_655  A
C175        C952   1.413       .  A
C175        C373   1.493       .  S
C176        C177   1.404       .  A
C176        C951   1.413       .  A
C176        H181   1.084       .  S
C177        C264   1.441       .  S
C177        C178   1.394       .  A
C178        C955   1.394       .  A
C178        H182   1.086       .  S
C179        C251   1.440       .  S
C179        C180   1.403       .  A
C179        C954   1.394   1_455  A
C180        H183   1.083       .  S
C184        C185   1.412       .  A
C184        C965   1.411       .  A
C184        C242   1.490       .  S
C185        C186   1.403       .  A
C185        H190   1.084       .  S
C186        C272   1.439       .  S
C186        C187   1.395       .  A
C187        C964   1.394       .  A
C187        H191   1.086       .  S
C188        C260   1.439       .  S
C188        C189   1.402       .  A
C188        C963   1.394   1_455  A
C189        C960   1.411       .  A
C189        H192   1.084       .  S
C193        C194   1.412       .  A
C193        C198   1.411       .  A
C193        C232   1.489       .  S
C194        C195   1.404       .  A
C194        H199   1.084       .  S
C195        C254   1.440       .  S
C195        C196   1.395       .  A
C196        C197   1.394       .  A
C196        H200   1.086       .  S
C197        C269   1.439       .  S
C197        C198   1.402       .  A
C198        H201   1.084       .  S
C202        C203   1.413   1_565  A
C202        C595   1.413       .  A
C202        C610   1.493       .  S
C203        C204   1.403       .  A
C203        H208   1.083       .  S
C204        C265   1.441       .  S
C204        C205   1.395   1_545  A
C205        C594   1.395       .  A
C205        H209   1.086       .  S
C206        C258   1.439       .  S
C206        C207   1.402       .  A
C206        C593   1.394       .  A
C207        C590   1.412       .  A
C207        H210   1.084       .  S
C211        H212   1.111       .  S
C211        C217   1.540       .  S
C211        C216   1.540       .  S
C211       C1379   1.540       .  S
C213        H214   1.111       .  S
C213        C219   1.538       .  S
C213        C220   1.539       .  S
C213       C1382   1.539       .  S
C215       C1375   1.538   1_445  S
C215        C218   1.377       .  D
C215        C296   1.485       .  S
C216        C219   1.377       .  D
C216        C279   1.490       .  S
C217        C220   1.377       .  D
C217        C286   1.488       .  S
C218       C1377   1.539   1_445  S
C218        C235   1.488       .  S
C219        C225   1.486       .  S
C220        C245   1.489       .  S
C221        C222   1.408       .  A
C221        C226   1.400       .  A
C221        H227   1.083       .  S
C222        C611   1.408       .  A
C222        C590   1.492       .  S
C223        C224   1.400       .  A
C223        C610   1.408       .  A
C223        H228   1.083       .  S
C224        C613   1.404       .  A
C224        H229   1.083       .  S
C225        C226   1.401       .  A
C225        C612   1.404       .  A
C226        H230   1.083       .  S
C231        C232   1.407       .  A
C231        C236   1.400       .  A
C231        H237   1.083       .  S
C232        C233   1.406       .  A
C233        C234   1.400       .  A
C233        H238   1.083       .  S
C234        C235   1.405       .  A
C234        H239   1.083       .  S
C235        C236   1.403       .  A
C236        H240   1.083       .  S
C241        C242   1.407       .  A
C241        C246   1.401       .  A
C241        H247   1.083       .  S
C242       C1019   1.407       .  A
C243        C244   1.400       .  A
C243       C1018   1.407       .  A
C243        H248   1.083       .  S
C244       C1021   1.405       .  A
C244        H249   1.083       .  S
C245        C246   1.403       .  A
C245       C1020   1.405       .  A
C246        H250   1.083       .  S
C251        C252   1.206       .  T
C253        C254   1.206       .  T
C255        C256   1.208       .  T
C257        C258   1.205       .  T
C259        C260   1.205       .  T
C261        C262   1.207       .  T
C263        C264   1.207       .  T
C265        C266   1.207       .  T
C267        C268   1.205       .  T
C269        C270   1.205       .  T
C271        C272   1.206       .  T
C273        C274   1.205       .  T
C275        C276   1.409       .  A
C275        C280   1.402       .  A
C275        H281   1.083       .  S
C276        C665   1.407       .  A
C277        C278   1.399       .  A
C277        C664   1.407   1_545  A
C277        H282   1.083       .  S
C278        C667   1.405   1_545  A
C278        H283   1.083       .  S
C279        C280   1.403       .  A
C279        C666   1.405       .  A
C280        H284   1.083       .  S
C285        C286   1.404       .  A
C285        C290   1.399       .  A
C285        H291   1.083       .  S
C286       C1063   1.402       .  A
C287        C288   1.401       .  A
C287       C1062   1.402   1_455  A
C287        H292   1.083       .  S
C288        C289   1.409   1_455  A
C288        H293   1.083       .  S
C289       C1066   1.407       .  A
C290       C1065   1.407       .  A
C290        H294   1.082       .  S
C295        C296   1.403       .  A
C295        C300   1.399       .  A
C295        H301   1.083       .  S
C296        C297   1.402       .  A
C297        C298   1.401       .  A
C297        H302   1.083       .  S
C298        C299   1.409       .  A
C298        H303   1.082       .  S
C299        C300   1.408       .  A
C300        H304   1.083       .  S
C305        C306   1.206       .  T
C307        C308   1.205       .  T
C309        C310   1.207       .  T
C311        C312   1.205       .  T
C313        C314   1.207       .  T
C315        C316   1.206       .  T
C317        C318   1.206       .  T
C319        C320   1.205       .  T
C321        C322   1.206       .  T
C323        C324   1.205       .  T
C325        C326   1.207       .  T
C327        C328   1.206       .  T
C329        C330   1.406       .  A
C329        C334   1.399       .  A
C329        H335   1.083       .  S
C330        C331   1.403       .  A
C331        C332   1.403       .  A
C331        H336   1.083       .  S
C332        C333   1.409       .  A
C332        H337   1.083       .  S
C333        C334   1.407       .  A
C334        H338   1.083       .  S
C339        C340   1.403   1_455  A
C339        C344   1.396       .  A
C339        H345   1.083       .  S
C340        C782   1.485       .  S
C340       C1117   1.403       .  A
C341        C342   1.401       .  A
C341       C1116   1.403       .  A
C341        H346   1.083       .  S
C342       C1119   1.409       .  A
C342        H347   1.083       .  S
C343        C344   1.406   1_655  A
C343       C1118   1.409       .  A
C344        H348   1.082       .  S
C349        C350   1.403       .  A
C349        C354   1.402       .  A
C349        H355   1.082       .  S
C350        C351   1.405       .  A
C351        C352   1.400       .  A
C351        H356   1.083       .  S
C352        C353   1.407       .  A
C352        H745   1.082       .  S
C353        C354   1.408       .  A
C354        H358   1.083       .  S
H357        C740   1.082       .  S
C359        C360   1.404       .  A
C359        C364   1.399       .  A
C359        H365   1.083       .  S
C360        C361   1.402       .  A
C361        C362   1.401       .  A
C361        H366   1.083       .  S
C362        C363   1.408       .  A
C362        H367   1.083       .  S
C363        C364   1.407       .  A
C364        H368   1.083       .  S
C369        C370   1.402   1_455  A
C369        C374   1.401       .  A
C369        H375   1.083       .  S
C370        C785   1.491       .  S
C370       C1147   1.406       .  A
C371        C372   1.400       .  A
C371       C1146   1.406       .  A
C371        H376   1.083       .  S
C372       C1149   1.407       .  A
C372        H377   1.083       .  S
C373        C374   1.408   1_655  A
C373       C1148   1.407       .  A
C374        H378   1.083       .  S
C379        C384   1.401       .  A
C379        C768   1.403       .  A
C379        H385   1.083       .  S
C380        C398   1.488       .  S
C380        C381   1.405       .  A
C380        C767   1.403   1_545  A
C381        C382   1.398       .  A
C381        H386   1.083       .  S
C382        C383   1.406       .  A
C382        H387   1.083       .  S
C383        C772   1.408   1_545  A
C384        C771   1.408       .  A
C384        H388   1.083       .  S
C389        H390   1.111       .  S
C389        C783   1.541       .  S
C389        C394   1.538       .  S
C391        H392   1.111       .  S
C391        C785   1.540       .  S
C391       C1172   1.540   1_545  S
C391        C398   1.540   1_655  S
C393        C396   1.378       .  D
C393        C718   1.488       .  S
C394        C397   1.375       .  D
C394       C1504   1.481       .  S
C395        C777   1.538   1_445  S
C395        C398   1.378       .  D
C395        C738   1.489   1_545  S
C396       C1167   1.540   1_565  S
C396        C748   1.489       .  S
C397        C779   1.538       .  S
C397       C1534   1.488       .  S
O399        C415   1.276       .  A
O399       Zn405   2.035       .  S
C400        O416   1.272       .  A
C400        O413   1.275       .  A
C400        C707   1.436       .  S
O401        C414   1.274       .  A
O401       Cd408   2.075       .  S
O402        C420   1.275       .  A
O402       Cd411   2.075   1_556  S
O403        C417   1.274       .  A
O403       Cd407   2.071       .  S
O404        C415   1.271       .  A
O404       Cd407   2.060       .  S
Zn405       O416   2.016       .  S
Zn405       O418   2.025   1_554  S
Zn405       O410   1.942       .  S
O406        C417   1.273       .  A
O406       Cd411   2.073       .  S
Cd407       O409   2.065   1_554  S
Cd407       O410   1.992       .  S
Cd408       O412   2.079       .  S
Cd408       O421   2.073       .  S
Cd408       O410   2.005   1_556  S
O409        C419   1.273       .  A
O410       Cd411   1.996       .  S
Cd411       O413   2.079       .  S
O412        C419   1.274       .  A
C414        O418   1.274       .  A
C414        C705   1.437       .  S
C415        C715   1.435       .  S
C417        C714   1.435       .  S
C419        C712   1.435       .  S
C420        O421   1.274       .  A
C420        C709   1.436       .  S
C422        C423   1.414       .  A
C422        C427   1.412       .  A
C422        C721   1.492       .  S
C423        C424   1.404       .  A
C423        H428   1.083       .  S
C424        C710   1.440       .  S
C424        C425   1.394       .  A
C425        C426   1.393       .  A
C425        H429   1.086       .  S
C426        C703   1.438       .  S
C426        C427   1.402       .  A
C427        H430   1.084       .  S
O431        C447   1.273       .  A
O431       Zn437   2.025       .  S
C432        O448   1.276       .  A
C432        O445   1.272       .  A
C432        C702   1.437       .  S
O433        C446   1.272       .  A
O433       Cd440   2.064       .  S
O434        C452   1.275       .  A
O434       Cd443   2.072   1_556  S
O435        C449   1.272       .  A
O435       Cd439   2.065       .  S
O436        C447   1.274       .  A
O436       Cd439   2.071       .  S
Zn437       O448   2.034       .  S
Zn437       O450   2.024   1_554  S
Zn437       O442   1.942   1_554  S
O438        C449   1.275       .  A
O438       Cd443   2.075       .  S
Cd439       O441   2.074   1_554  S
Cd439       O442   1.992   1_554  S
Cd440       O444   2.076       .  S
Cd440       O453   2.071       .  S
Cd440       O442   2.003       .  S
O441        C451   1.275       .  A
O442       Cd443   1.994   1_556  S
Cd443       O445   2.067       .  S
O444        C451   1.273       .  A
C446        O450   1.275       .  A
C446        C697   1.434       .  S
C447        C699   1.437       .  S
C449        C696   1.434       .  S
C451        C694   1.437       .  S
C452        O453   1.273       .  A
C452        C704   1.434       .  S
C454        C455   1.414       .  A
C454        C459   1.413       .  A
C454        C687   1.493       .  S
C455        C456   1.403       .  A
C455        H460   1.083       .  S
C456        C708   1.440       .  S
C456        C457   1.393       .  A
C457        C458   1.394       .  A
C457        H461   1.086       .  S
C458        C695   1.438       .  S
C458        C459   1.403       .  A
C459        H462   1.084       .  S
C463        C464   1.413       .  A
C463        C741   1.493       .  S
C464        C465   1.403       .  A
C464        H469   1.084       .  S
C465        C698   1.438       .  S
C465        C466   1.393   1_565  A
C466        H470   1.086       .  S
C467        C706   1.442       .  S
C467        C468   1.404       .  A
C468        H471   1.083       .  S
C472        C473   1.413       .  A
C472       C1253   1.411   1_455  A
C472        C677   1.491   1_455  S
C473        C474   1.404       .  A
C473        H478   1.083       .  S
C474        C700   1.441       .  S
C474        C475   1.396       .  A
C475       C1252   1.395   1_455  A
C475        H479   1.086       .  S
C476        C713   1.440       .  S
C476       C1251   1.395       .  A
C476        C477   1.401       .  A
C477       C1248   1.411       .  A
C477        H480   1.084       .  S
C481        C482   1.422   1_655  A
C481       C1262   1.421       .  A
C481        C731   1.517       .  S
C482        C483   1.404       .  A
C482        H487   1.078       .  S
C483        C693   1.442       .  S
C483        C484   1.392   1_455  A
C484       C1261   1.391       .  A
C484        H488   1.086       .  S
C485        C711   1.440       .  S
C485       C1260   1.391       .  A
C485        C486   1.402       .  A
C486       C1257   1.421       .  A
C486        H489   1.078       .  S
C490        C491   1.413       .  A
C490        C664   1.492       .  S
C491        C492   1.403       .  A
C491        H496   1.083       .  S
C492        C701   1.441       .  S
C492        C493   1.395       .  A
C493        H497   1.086       .  S
C494        C716   1.440       .  S
C494        C495   1.403       .  A
C495        H498   1.084       .  S
O499        C515   1.273       .  A
O499       Zn505   2.022       .  S
C500        O516   1.276       .  A
C500        O513   1.272       .  A
C500        C659   1.437       .  S
O501        C514   1.273       .  A
O501       Cd508   2.073       .  S
O502        C520   1.275       .  A
O502       Cd511   2.074       .  S
O503        C517   1.273       .  A
O503       Cd507   2.069       .  S
O504        C515   1.275       .  A
O504       Cd507   2.074       .  S
Zn505       O516   2.035       .  S
Zn505       O518   2.027       .  S
Zn505       O510   1.943       .  S
O506        C517   1.275       .  A
O506       Cd511   2.079       .  S
Cd507       O509   2.072       .  S
Cd507       O510   1.994       .  S
Cd508       O512   2.076       .  S
Cd508       O521   2.074       .  S
Cd508       O510   2.004       .  S
O509        C519   1.274       .  A
O510       Cd511   1.995       .  S
Cd511       O513   2.066       .  S
O512        C519   1.274       .  A
C514        O518   1.275       .  A
C514        C651   1.438       .  S
C515        C654   1.437       .  S
C517        C658   1.436       .  S
C519        C656   1.436       .  S
C520        O521   1.274       .  A
C520        C661   1.436       .  S
C522        C523   1.412       .  A
C522        C527   1.412       .  A
C522        C751   1.489       .  S
C523        C524   1.403       .  A
C523        H528   1.084       .  S
C524        C650   1.438       .  S
C524        C525   1.394       .  A
C525        C526   1.394       .  A
C525        H529   1.086       .  S
C526        C662   1.440       .  S
C526        C527   1.403       .  A
C527        H530   1.084       .  S
O531        C547   1.275       .  A
O531       Zn537   2.026       .  S
C532        O548   1.272       .  A
C532        O545   1.274       .  A
C532        C641   1.435       .  S
O533        C546   1.273       .  A
O533       Cd540   2.074       .  S
O534        C552   1.274       .  A
O534       Cd543   2.066       .  S
O535        C549   1.275       .  A
O535       Cd539   2.080       .  S
O536        C547   1.272       .  A
O536       Cd539   2.067       .  S
Zn537       O548   2.018       .  S
Zn537       O550   2.021       .  S
Zn537       O542   1.941       .  S
O538        C549   1.272       .  A
O538       Cd543   2.069       .  S
Cd539       O541   2.074       .  S
Cd539       O542   1.994       .  S
Cd540       O544   2.074       .  S
Cd540       O553   2.074       .  S
Cd540       O542   2.005       .  S
O541        C551   1.275       .  A
O542       Cd543   1.994       .  S
Cd543       O545   2.071       .  S
O544        C551   1.274       .  A
C546        O550   1.274       .  A
C546        C640   1.436       .  S
C547        C647   1.435       .  S
C549        C645   1.437       .  S
C551        C643   1.436       .  S
C552        O553   1.274       .  A
C552        C649   1.434       .  S
C554        C559   1.412       .  A
C554        C771   1.492       .  S
C555        C556   1.404       .  A
C555        H560   1.084       .  S
C556        C644   1.440       .  S
C557        C558   1.395       .  A
C557        H561   1.086       .  S
C558        C655   1.441       .  S
C558        C559   1.403       .  A
C559        H562   1.084       .  S
C563       C1340   1.416       .  A
C563        C568   1.414   1_655  A
C563        C761   1.498       .  S
C564       C1339   1.416       .  A
C564        C565   1.404       .  A
C564        H569   1.083       .  S
C565        C652   1.442       .  S
C565        C566   1.393       .  A
C566       C1343   1.393       .  A
C566        H570   1.086       .  S
C567        C639   1.440       .  S
C567       C1342   1.393   1_455  A
C567        C568   1.404       .  A
C568        H571   1.083       .  S
C572        C573   1.413       .  A
C572       C1353   1.411       .  A
C572        C630   1.491       .  S
C573        C574   1.404       .  A
C573        H578   1.084       .  S
C574        C660   1.441       .  S
C574        C575   1.395       .  A
C575       C1352   1.395       .  A
C575        H579   1.086       .  S
C576        C648   1.439       .  S
C576       C1351   1.395       .  A
C576        C577   1.402       .  A
C577       C1348   1.411       .  A
C577        H580   1.084       .  S
C581        C582   1.411       .  A
C581        C586   1.412       .  A
C581        C620   1.489       .  S
C582        C583   1.403       .  A
C582        H587   1.084       .  S
C583        C642   1.439       .  S
C583        C584   1.395       .  A
C584        C585   1.395       .  A
C584        H588   1.086       .  S
C585        C657   1.440       .  S
C585        C586   1.403       .  A
C586        H589   1.084       .  S
C590        C591   1.413       .  A
C591        C592   1.403       .  A
C591        H596   1.083       .  S
C592        C653   1.441       .  S
C592        C593   1.395       .  A
C593        H597   1.086       .  S
C594        C646   1.441       .  S
C594        C595   1.403       .  A
C595        H598   1.083       .  S
C599        H600   1.111       .  S
C599        C605   1.539       .  S
C599        C604   1.539       .  S
C599        C991   1.538   1_565  S
C601        H602   1.111       .  S
C601        C607   1.539       .  S
C601        C994   1.539   1_565  S
C601        C608   1.539       .  S
C603        C987   1.540   1_455  S
C603        C606   1.378       .  D
C603        C684   1.488       .  S
C604        C607   1.377       .  D
C604        C667   1.488       .  S
C605        C608   1.377       .  D
C605        C674   1.489       .  S
C606        C989   1.539   1_455  S
C606        C623   1.489       .  S
C607        C613   1.488       .  S
C608        C633   1.489       .  S
C609        C610   1.409   1_545  A
C609        C614   1.401       .  A
C609        H615   1.083       .  S
C611        C612   1.400       .  A
C611        H616   1.083       .  S
C612        H617   1.083       .  S
C613        C614   1.402   1_565  A
C614        H618   1.083       .  S
C619        C620   1.407       .  A
C619        C624   1.400       .  A
C619        H625   1.083       .  S
C620        C621   1.406       .  A
C621        C622   1.400       .  A
C621        H626   1.083       .  S
C622        C623   1.406       .  A
C622        H627   1.083       .  S
C623        C624   1.403       .  A
C624        H628   1.083       .  S
C629        C630   1.408       .  A
C629        C634   1.401       .  A
C629        H635   1.083       .  S
C630       C1407   1.407       .  A
C631       C1406   1.407       .  A
C631        C632   1.399       .  A
C631        H636   1.083       .  S
C632       C1409   1.405       .  A
C632        H637   1.083       .  S
C633       C1408   1.405       .  A
C633        C634   1.402       .  A
C634        H638   1.083       .  S
C639        C640   1.206       .  T
C641        C642   1.206       .  T
C643        C644   1.206       .  T
C645        C646   1.207       .  T
C647        C648   1.206       .  T
C649        C650   1.205       .  T
C651        C652   1.207       .  T
C653        C654   1.207       .  T
C655        C656   1.207       .  T
C657        C658   1.206       .  T
C659        C660   1.207       .  T
C661        C662   1.206       .  T
C663        C664   1.408       .  A
C663        C668   1.401       .  A
C663        H669   1.083       .  S
C665        C666   1.399       .  A
C665        H670   1.083       .  S
C666        H671   1.083       .  S
C667        C668   1.402       .  A
C668        H672   1.083       .  S
C673        C674   1.404       .  A
C673        C678   1.398       .  A
C673        H679   1.083       .  S
C674       C1451   1.403       .  A
C675       C1450   1.403   1_455  A
C675        C676   1.401       .  A
C675        H680   1.083       .  S
C676        C677   1.408   1_455  A
C676        H681   1.083       .  S
C677       C1454   1.407       .  A
C678       C1453   1.407       .  A
C678        H682   1.083       .  S
C683        C684   1.404       .  A
C683        C688   1.399       .  A
C683        H689   1.083       .  S
C684        C685   1.403       .  A
C685        C686   1.401       .  A
C685        H690   1.083       .  S
C686        C687   1.409       .  A
C686        H691   1.082       .  S
C687        C688   1.407       .  A
C688        H692   1.083       .  S
C693        C694   1.207       .  T
C695        C696   1.205       .  T
C697        C698   1.205       .  T
C699        C700   1.207       .  T
C701        C702   1.207       .  T
C703        C704   1.205       .  T
C705        C706   1.207       .  T
C707        C708   1.207       .  T
C709        C710   1.206       .  T
C711        C712   1.206       .  T
C713        C714   1.206       .  T
C715        C716   1.206       .  T
C717        C718   1.404       .  A
C717        C722   1.398       .  A
C717        H723   1.083       .  S
C718        C719   1.403       .  A
C719        C720   1.401       .  A
C719        H724   1.083       .  S
C720        C721   1.408       .  A
C720        H725   1.083       .  S
C721        C722   1.407       .  A
C722        H726   1.083       .  S
C727        C728   1.398   1_455  A
C727        C732   1.402       .  A
C727        H733   1.083       .  S
C728       C1170   1.481       .  S
C728       C1505   1.396       .  A
C729       C1504   1.396       .  A
C729        C730   1.398       .  A
C729        H734   1.083       .  S
C730       C1507   1.417       .  A
C730        H735   1.077       .  S
C731       C1506   1.417       .  A
C731        C732   1.417   1_655  A
C732        H736   1.078       .  S
C737        C738   1.402   1_545  A
C737        C742   1.401       .  A
C737        H743   1.083       .  S
C738        C739   1.405       .  A
C739        C740   1.400       .  A
C739        H744   1.083       .  S
C740        C741   1.407       .  A
C741        C742   1.408   1_565  A
C742        H746   1.083       .  S
C747        C748   1.405       .  A
C747        C752   1.399       .  A
C747        H753   1.083       .  S
C748        C749   1.403       .  A
C749        C750   1.401       .  A
C749        H754   1.083       .  S
C750        C751   1.408       .  A
C750        H755   1.083       .  S
C751        C752   1.406       .  A
C752        H756   1.083       .  S
C757        C758   1.402   1_455  A
C757        C762   1.403       .  A
C757        H763   1.083       .  S
C758       C1173   1.488       .  S
C758       C1535   1.402       .  A
C759       C1534   1.402       .  A
C759        C760   1.399       .  A
C759        H764   1.080       .  S
C760       C1537   1.408       .  A
C760        H765   1.082       .  S
C761       C1536   1.408       .  A
C761        C762   1.411   1_655  A
C762        H766   1.082       .  S
C767        C772   1.401       .  A
C767        H773   1.083       .  S
C768        C769   1.405       .  A
C769        C770   1.400       .  A
C769        H774   1.083       .  S
C770        C771   1.407       .  A
C770        H775   1.083       .  S
C772        H776   1.083       .  S
C777        H778   1.111       .  S
C777        C782   1.538   1_565  S
C777       C1169   1.537       .  S
C779        H780   1.111       .  S
C779        C786   1.540       .  S
C781       C1165   1.541       .  S
C781        C784   1.378       .  D
C781       C1106   1.492       .  S
C782        C785   1.377       .  D
C783        C786   1.378       .  D
C783       C1126   1.492       .  S
C784       C1136   1.487       .  S
C786       C1544   1.489       .  S
O787        C803   1.275       .  A
O787       Zn793   2.031       .  S
C788        O804   1.272       .  A
C788        O801   1.275       .  A
C788       C1095   1.434       .  S
O789        C802   1.273       .  A
O789       Cd796   2.070       .  S
O790        C808   1.275       .  A
O790       Cd799   2.073   1_556  S
O791        C805   1.275       .  A
O791       Cd795   2.079       .  S
O792        C803   1.272       .  A
O792       Cd795   2.064       .  S
Zn793       O804   2.014       .  S
Zn793       O806   2.025   1_554  S
Zn793       O798   1.941       .  S
O794        C805   1.273       .  A
O794       Cd799   2.071       .  S
Cd795       O797   2.068   1_554  S
Cd795       O798   1.992       .  S
Cd796       O800   2.073       .  S
Cd796       O809   2.071       .  S
Cd796       O798   2.003   1_556  S
O797        C807   1.274       .  A
O798       Cd799   1.994       .  S
Cd799       O801   2.075       .  S
O800        C807   1.274       .  A
C802        O806   1.274       .  A
C802       C1093   1.436       .  S
C803       C1103   1.435       .  S
C805       C1102   1.437       .  S
C807       C1100   1.434       .  S
C808        O809   1.273       .  A
C808       C1097   1.435       .  S
C810        C811   1.413       .  A
C810        C815   1.413       .  A
C810       C1109   1.493       .  S
C811        C812   1.404       .  A
C811        H816   1.083       .  S
C812       C1098   1.440       .  S
C812        C813   1.394       .  A
C813        C814   1.393       .  A
C813        H817   1.086       .  S
C814       C1091   1.440       .  S
C814        C815   1.403       .  A
C815        H818   1.083       .  S
O819        C835   1.273       .  A
O819       Zn825   2.022       .  S
C820        O836   1.275       .  A
C820        O833   1.272       .  A
C820       C1090   1.437       .  S
O821        C834   1.274       .  A
O821       Cd828   2.075       .  S
O822        C840   1.275       .  A
O822       Cd831   2.072   1_556  S
O823        C837   1.271       .  A
O823       Cd827   2.062       .  S
O824        C835   1.273       .  A
O824       Cd827   2.066       .  S
Zn825       O836   2.033       .  S
Zn825       O838   2.023   1_554  S
Zn825       O830   1.941   1_554  S
O826        C837   1.275       .  A
O826       Cd831   2.077       .  S
Cd827       O829   2.067   1_554  S
Cd827       O830   1.992   1_554  S
Cd828       O832   2.080       .  S
Cd828       O841   2.074       .  S
Cd828       O830   2.005       .  S
O829        C839   1.273       .  A
O830       Cd831   1.993   1_556  S
Cd831       O833   2.067       .  S
O832        C839   1.274       .  A
C834        O838   1.274       .  A
C834       C1085   1.436       .  S
C835       C1087   1.434       .  S
C837       C1084   1.433       .  S
C839       C1082   1.436       .  S
C840        O841   1.274       .  A
C840       C1092   1.436       .  S
C842        C843   1.413       .  A
C842        C847   1.413       .  A
C842       C1075   1.493       .  S
C843        C844   1.402       .  A
C843        H848   1.083       .  S
C844       C1096   1.439       .  S
C844        C845   1.393       .  A
C845        C846   1.394       .  A
C845        H849   1.086       .  S
C846       C1083   1.438       .  S
C846        C847   1.403       .  A
C847        H850   1.083       .  S
C851        C852   1.413       .  A
C851       C1244   1.414       .  A
C851       C1129   1.494       .  S
C852        C853   1.403       .  A
C852        H857   1.084       .  S
C853       C1086   1.441       .  S
C853        C854   1.394       .  A
C854       C1243   1.395       .  A
C854        H858   1.086       .  S
C855       C1094   1.440       .  S
C855       C1242   1.393       .  A
C855        C856   1.404       .  A
C856       C1239   1.414   1_545  A
C856        H859   1.083       .  S
C860        C861   1.412       .  A
C860       C1065   1.494       .  S
C861        C862   1.402       .  A
C861        H866   1.083       .  S
C862       C1088   1.439       .  S
C862        C863   1.395       .  A
C863        H867   1.086       .  S
C864       C1101   1.442       .  S
C864        C865   1.404       .  A
C865        H868   1.083       .  S
C869        C870   1.412       .  A
C869       C1119   1.490       .  S
C870        C871   1.401       .  A
C870        H875   1.084       .  S
C871       C1081   1.440       .  S
C871        C872   1.394       .  A
C872        H876   1.086       .  S
C873       C1099   1.438       .  S
C873        C874   1.402       .  A
C874        H877   1.083       .  S
C878        C879   1.413       .  A
C878       C1271   1.413       .  A
C878       C1052   1.493       .  S
C879        C880   1.404       .  A
C879        H884   1.083       .  S
C880       C1089   1.440       .  S
C880        C881   1.394       .  A
C881       C1270   1.394       .  A
C881        H885   1.086       .  S
C882       C1104   1.440       .  S
C882       C1269   1.394   1_545  A
C882        C883   1.403       .  A
C883       C1266   1.412   1_545  A
C883        H886   1.084       .  S
O887        C903   1.273       .  A
O887       Zn893   2.021       .  S
C888        O904   1.276       .  A
C888        O901   1.272       .  A
C888       C1047   1.435       .  S
O889        C902   1.272       .  A
O889       Cd896   2.067       .  S
O890        C908   1.274       .  A
O890       Cd899   2.073       .  S
O891        C905   1.272       .  A
O891       Cd895   2.068       .  S
O892        C903   1.275       .  A
O892       Cd895   2.074       .  S
Zn893       O904   2.032       .  S
Zn893       O906   2.029       .  S
Zn893       O898   1.940       .  S
O894        C905   1.275       .  A
O894       Cd899   2.076       .  S
Cd895       O897   2.072       .  S
Cd895       O898   1.993       .  S
Cd896       O900   2.068       .  S
Cd896       O909   2.069       .  S
Cd896       O898   2.001       .  S
O897        C907   1.274       .  A
O898       Cd899   1.993       .  S
Cd899       O901   2.062       .  S
O900        C907   1.273       .  A
C902        O906   1.275       .  A
C902       C1039   1.436       .  S
C903       C1042   1.436       .  S
C905       C1046   1.435       .  S
C907       C1044   1.433       .  S
C908        O909   1.273       .  A
C908       C1049   1.434       .  S
C910        C911   1.414       .  A
C910        C915   1.412       .  A
C910       C1139   1.492       .  S
C911        C912   1.404       .  A
C911        H916   1.083       .  S
C912       C1038   1.440       .  S
C912        C913   1.394       .  A
C913        C914   1.393       .  A
C913        H917   1.086       .  S
C914       C1050   1.438       .  S
C914        C915   1.402       .  A
C915        H918   1.084       .  S
O919        C935   1.274       .  A
O919       Zn925   2.025       .  S
C920        O936   1.272       .  A
C920        O933   1.274       .  A
C920       C1029   1.436       .  S
O921        C934   1.274       .  A
O921       Cd928   2.077       .  S
O922        C940   1.274       .  A
O922       Cd931   2.070       .  S
O923        C937   1.275       .  A
O923       Cd927   2.075       .  S
O924        C935   1.272       .  A
O924       Cd927   2.064       .  S
Zn925       O936   2.017       .  S
Zn925       O938   2.018       .  S
Zn925       O930   1.941       .  S
O926        C937   1.272       .  A
O926       Cd931   2.067       .  S
Cd927       O929   2.072       .  S
Cd927       O930   1.994       .  S
Cd928       O932   2.082       .  S
Cd928       O941   2.079       .  S
Cd928       O930   2.007       .  S
O929        C939   1.274       .  A
O930       Cd931   1.996       .  S
Cd931       O933   2.075       .  S
O932        C939   1.275       .  A
C934        O938   1.274       .  A
C934       C1028   1.436       .  S
C935       C1035   1.434       .  S
C937       C1033   1.434       .  S
C939       C1031   1.438       .  S
C940        O941   1.274       .  A
C940       C1037   1.436       .  S
C942       C1331   1.413   1_545  A
C942        C947   1.411       .  A
C942       C1159   1.490       .  S
C943       C1330   1.413       .  A
C943        C944   1.404       .  A
C943        H948   1.084       .  S
C944       C1032   1.442       .  S
C944       C1333   1.395       .  A
C945       C1332   1.394   1_545  A
C945        C946   1.394       .  A
C945        H949   1.086       .  S
C946       C1043   1.438       .  S
C946        C947   1.401       .  A
C947        H950   1.084       .  S
C951        C956   1.413       .  A
C951       C1149   1.493       .  S
C952        C953   1.404       .  A
C952        H957   1.084       .  S
C953       C1040   1.441       .  S
C953        C954   1.394       .  A
C954        H958   1.086       .  S
C955       C1027   1.440       .  S
C955        C956   1.403       .  A
C956        H959   1.083       .  S
C960        C961   1.412   1_455  A
C960       C1018   1.490       .  S
C961        C962   1.403       .  A
C961        H966   1.084       .  S
C962       C1048   1.439       .  S
C962        C963   1.395       .  A
C963        H967   1.086       .  S
C964       C1036   1.439       .  S
C964        C965   1.402       .  A
C965        H968   1.084       .  S
C969        C970   1.412       .  A
C969        C974   1.411       .  A
C969       C1008   1.489       .  S
C970        C971   1.404       .  A
C970        H975   1.084       .  S
C971       C1030   1.440       .  S
C971        C972   1.395       .  A
C972        C973   1.394       .  A
C972        H976   1.086       .  S
C973       C1045   1.439       .  S
C973        C974   1.402       .  A
C974        H977   1.084       .  S
C978        C979   1.413   1_565  A
C978       C1371   1.413       .  A
C978       C1386   1.493       .  S
C979        C980   1.403       .  A
C979        H984   1.083       .  S
C980       C1041   1.441       .  S
C980        C981   1.395   1_545  A
C981       C1370   1.395       .  A
C981        H985   1.086       .  S
C982       C1034   1.439       .  S
C982       C1369   1.394       .  A
C982        C983   1.402       .  A
C983       C1366   1.412       .  A
C983        H986   1.084       .  S
C987        H988   1.111       .  S
C987        C993   1.540       .  S
C987        C992   1.540       .  S
C989        H990   1.111       .  S
C989        C995   1.538       .  S
C989        C996   1.539       .  S
C991        C994   1.377       .  D
C991       C1072   1.485       .  S
C992        C995   1.377       .  D
C992       C1055   1.490       .  S
C993        C996   1.377       .  D
C993       C1062   1.488       .  S
C994       C1011   1.488       .  S
C995       C1001   1.486       .  S
C996       C1021   1.489   1_655  S
C997        C998   1.408       .  A
C997       C1002   1.400       .  A
C997       H1003   1.083       .  S
C998       C1387   1.408       .  A
C998       C1366   1.492       .  S
C999       C1386   1.408       .  A
C999       C1000   1.400       .  A
C999       H1004   1.083       .  S
C1000      C1389   1.404       .  A
C1000      H1005   1.083       .  S
C1001      C1388   1.404       .  A
C1001      C1002   1.401       .  A
C1002      H1006   1.083       .  S
C1007      C1008   1.407       .  A
C1007      C1012   1.400       .  A
C1007      H1013   1.083       .  S
C1008      C1009   1.406       .  A
C1009      C1010   1.400       .  A
C1009      H1014   1.083       .  S
C1010      C1011   1.405       .  A
C1010      H1015   1.083       .  S
C1011      C1012   1.403       .  A
C1012      H1016   1.083       .  S
C1017      C1018   1.407   1_655  A
C1017      C1022   1.401       .  A
C1017      H1023   1.083       .  S
C1019      C1020   1.400       .  A
C1019      H1024   1.083       .  S
C1020      H1025   1.083       .  S
C1021      C1022   1.403   1_455  A
C1022      H1026   1.083       .  S
C1027      C1028   1.206       .  T
C1029      C1030   1.206       .  T
C1031      C1032   1.208       .  T
C1033      C1034   1.205       .  T
C1035      C1036   1.205       .  T
C1037      C1038   1.207       .  T
C1039      C1040   1.207       .  T
C1041      C1042   1.207       .  T
C1043      C1044   1.205       .  T
C1045      C1046   1.205       .  T
C1047      C1048   1.206       .  T
C1049      C1050   1.205       .  T
C1051      C1052   1.409       .  A
C1051      C1056   1.402       .  A
C1051      H1057   1.083       .  S
C1052      C1441   1.407       .  A
C1053      C1440   1.407   1_545  A
C1053      C1054   1.399       .  A
C1053      H1058   1.083       .  S
C1054      C1443   1.405   1_545  A
C1054      H1059   1.083       .  S
C1055      C1442   1.405       .  A
C1055      C1056   1.403       .  A
C1056      H1060   1.083       .  S
C1061      C1062   1.404       .  A
C1061      C1066   1.399       .  A
C1061      H1067   1.083       .  S
C1063      C1064   1.401       .  A
C1063      H1068   1.083       .  S
C1064      C1065   1.409       .  A
C1064      H1069   1.083       .  S
C1066      H1070   1.082       .  S
C1071      C1072   1.403       .  A
C1071      C1076   1.399       .  A
C1071      H1077   1.083       .  S
C1072      C1073   1.402       .  A
C1073      C1074   1.401       .  A
C1073      H1078   1.083       .  S
C1074      C1075   1.409       .  A
C1074      H1079   1.082       .  S
C1075      C1076   1.408       .  A
C1076      H1080   1.083       .  S
C1081      C1082   1.206       .  T
C1083      C1084   1.205       .  T
C1085      C1086   1.207       .  T
C1087      C1088   1.205       .  T
C1089      C1090   1.207       .  T
C1091      C1092   1.206       .  T
C1093      C1094   1.206       .  T
C1095      C1096   1.205       .  T
C1097      C1098   1.206       .  T
C1099      C1100   1.205       .  T
C1101      C1102   1.207       .  T
C1103      C1104   1.206       .  T
C1105      C1106   1.406       .  A
C1105      C1110   1.399       .  A
C1105      H1111   1.083       .  S
C1106      C1107   1.403       .  A
C1107      C1108   1.403       .  A
C1107      H1112   1.083       .  S
C1108      C1109   1.409       .  A
C1108      H1113   1.083       .  S
C1109      C1110   1.407       .  A
C1110      H1114   1.083       .  S
C1115      C1116   1.403       .  A
C1115      C1120   1.396       .  A
C1115      H1121   1.083       .  S
C1117      C1118   1.401       .  A
C1117      H1122   1.083       .  S
C1118      H1123   1.083       .  S
C1119      C1120   1.406       .  A
C1120      H1124   1.082       .  S
C1125      C1126   1.403       .  A
C1125      C1130   1.402       .  A
C1125      H1131   1.082       .  S
C1126      C1127   1.405       .  A
C1127      C1128   1.400       .  A
C1127      H1132   1.083       .  S
C1128      C1129   1.407       .  A
C1128      H1521   1.082       .  S
C1129      C1130   1.408       .  A
C1130      H1134   1.083       .  S
H1133      C1516   1.082       .  S
C1135      C1136   1.404       .  A
C1135      C1140   1.399       .  A
C1135      H1141   1.083       .  S
C1136      C1137   1.402       .  A
C1137      C1138   1.401       .  A
C1137      H1142   1.083       .  S
C1138      C1139   1.408       .  A
C1138      H1143   1.083       .  S
C1139      C1140   1.407       .  A
C1140      H1144   1.083       .  S
C1145      C1146   1.402       .  A
C1145      C1150   1.401       .  A
C1145      H1151   1.083       .  S
C1147      C1148   1.400       .  A
C1147      H1152   1.083       .  S
C1148      H1153   1.083       .  S
C1149      C1150   1.408       .  A
C1150      H1154   1.083       .  S
C1155      C1544   1.403       .  A
C1155      C1160   1.401       .  A
C1155      H1161   1.083       .  S
C1156      C1174   1.488       .  S
C1156      C1543   1.403   1_545  A
C1156      C1157   1.405       .  A
C1157      C1158   1.398       .  A
C1157      H1162   1.083       .  S
C1158      C1159   1.406       .  A
C1158      H1163   1.083       .  S
C1159      C1548   1.408   1_545  A
C1160      C1547   1.408       .  A
C1160      H1164   1.083       .  S
C1165      H1166   1.111       .  S
C1165      C1170   1.538       .  S
C1167      H1168   1.111       .  S
C1167      C1174   1.540       .  S
C1169      C1172   1.378       .  D
C1169      C1494   1.488       .  S
C1170      C1173   1.375       .  D
C1171      C1174   1.378       .  D
C1171      C1514   1.489   1_545  S
C1172      C1524   1.489       .  S
O1175      C1191   1.276       .  A
O1175     Zn1181   2.035       .  S
C1176      O1192   1.272       .  A
C1176      O1189   1.275       .  A
C1176      C1483   1.436       .  S
O1177      C1190   1.274       .  A
O1177     Cd1184   2.075       .  S
O1178      C1196   1.275       .  A
O1178     Cd1187   2.075   1_556  S
O1179      C1193   1.274       .  A
O1179     Cd1183   2.071       .  S
O1180      C1191   1.271       .  A
O1180     Cd1183   2.060       .  S
Zn1181     O1192   2.016       .  S
Zn1181     O1194   2.025   1_554  S
Zn1181     O1186   1.942       .  S
O1182      C1193   1.273       .  A
O1182     Cd1187   2.073       .  S
Cd1183     O1185   2.065   1_554  S
Cd1183     O1186   1.992       .  S
Cd1184     O1188   2.079       .  S
Cd1184     O1197   2.073       .  S
Cd1184     O1186   2.005   1_556  S
O1185      C1195   1.273       .  A
O1186     Cd1187   1.996       .  S
Cd1187     O1189   2.079       .  S
O1188      C1195   1.274       .  A
C1190      O1194   1.274       .  A
C1190      C1481   1.437       .  S
C1191      C1491   1.435       .  S
C1193      C1490   1.435       .  S
C1195      C1488   1.435       .  S
C1196      O1197   1.274       .  A
C1196      C1485   1.436       .  S
C1198      C1199   1.414       .  A
C1198      C1203   1.412       .  A
C1198      C1497   1.492       .  S
C1199      C1200   1.404       .  A
C1199      H1204   1.083       .  S
C1200      C1486   1.440       .  S
C1200      C1201   1.394       .  A
C1201      C1202   1.393       .  A
C1201      H1205   1.086       .  S
C1202      C1479   1.438       .  S
C1202      C1203   1.402       .  A
C1203      H1206   1.084       .  S
O1207      C1223   1.273       .  A
O1207     Zn1213   2.025       .  S
C1208      O1224   1.276       .  A
C1208      O1221   1.272       .  A
C1208      C1478   1.437       .  S
O1209      C1222   1.272       .  A
O1209     Cd1216   2.064       .  S
O1210      C1228   1.275       .  A
O1210     Cd1219   2.072   1_556  S
O1211      C1225   1.272       .  A
O1211     Cd1215   2.065       .  S
O1212      C1223   1.274       .  A
O1212     Cd1215   2.071       .  S
Zn1213     O1224   2.034       .  S
Zn1213     O1226   2.024   1_554  S
Zn1213     O1218   1.942   1_554  S
O1214      C1225   1.275       .  A
O1214     Cd1219   2.075       .  S
Cd1215     O1217   2.074   1_554  S
Cd1215     O1218   1.992   1_554  S
Cd1216     O1220   2.076       .  S
Cd1216     O1229   2.071       .  S
Cd1216     O1218   2.003       .  S
O1217      C1227   1.275       .  A
O1218     Cd1219   1.994   1_556  S
Cd1219     O1221   2.067       .  S
O1220      C1227   1.273       .  A
C1222      O1226   1.275       .  A
C1222      C1473   1.434       .  S
C1223      C1475   1.437       .  S
C1225      C1472   1.434       .  S
C1227      C1470   1.437       .  S
C1228      O1229   1.273       .  A
C1228      C1480   1.434       .  S
C1230      C1231   1.414       .  A
C1230      C1235   1.413       .  A
C1230      C1463   1.493       .  S
C1231      C1232   1.403       .  A
C1231      H1236   1.083       .  S
C1232      C1484   1.440       .  S
C1232      C1233   1.393       .  A
C1233      C1234   1.394       .  A
C1233      H1237   1.086       .  S
C1234      C1471   1.438       .  S
C1234      C1235   1.403       .  A
C1235      H1238   1.084       .  S
C1239      C1240   1.413       .  A
C1239      C1517   1.493       .  S
C1240      C1241   1.403       .  A
C1240      H1245   1.084       .  S
C1241      C1474   1.438       .  S
C1241      C1242   1.393   1_565  A
C1242      H1246   1.086       .  S
C1243      C1482   1.442       .  S
C1243      C1244   1.404       .  A
C1244      H1247   1.083       .  S
C1248      C1249   1.413       .  A
C1248      C1453   1.491       .  S
C1249      C1250   1.404       .  A
C1249      H1254   1.083       .  S
C1250      C1476   1.441       .  S
C1250      C1251   1.396       .  A
C1251      H1255   1.086       .  S
C1252      C1489   1.440       .  S
C1252      C1253   1.401       .  A
C1253      H1256   1.084       .  S
C1257      C1258   1.422       .  A
C1257      C1507   1.517       .  S
C1258      C1259   1.404       .  A
C1258      H1263   1.078       .  S
C1259      C1469   1.442       .  S
C1259      C1260   1.392       .  A
C1260      H1264   1.086       .  S
C1261      C1487   1.440       .  S
C1261      C1262   1.402       .  A
C1262      H1265   1.078       .  S
C1266      C1267   1.413       .  A
C1266      C1440   1.492       .  S
C1267      C1268   1.403       .  A
C1267      H1272   1.083       .  S
C1268      C1477   1.441       .  S
C1268      C1269   1.395       .  A
C1269      H1273   1.086       .  S
C1270      C1492   1.440       .  S
C1270      C1271   1.403       .  A
C1271      H1274   1.084       .  S
O1275      C1291   1.273       .  A
O1275     Zn1281   2.022       .  S
C1276      O1292   1.276       .  A
C1276      O1289   1.272       .  A
C1276      C1435   1.437       .  S
O1277      C1290   1.273       .  A
O1277     Cd1284   2.073       .  S
O1278      C1296   1.275       .  A
O1278     Cd1287   2.074       .  S
O1279      C1293   1.273       .  A
O1279     Cd1283   2.069       .  S
O1280      C1291   1.275       .  A
O1280     Cd1283   2.074       .  S
Zn1281     O1292   2.035       .  S
Zn1281     O1294   2.027       .  S
Zn1281     O1286   1.943       .  S
O1282      C1293   1.275       .  A
O1282     Cd1287   2.079       .  S
Cd1283     O1285   2.072       .  S
Cd1283     O1286   1.994       .  S
Cd1284     O1288   2.076       .  S
Cd1284     O1297   2.074       .  S
Cd1284     O1286   2.004       .  S
O1285      C1295   1.274       .  A
O1286     Cd1287   1.995       .  S
Cd1287     O1289   2.066       .  S
O1288      C1295   1.274       .  A
C1290      O1294   1.275       .  A
C1290      C1427   1.438       .  S
C1291      C1430   1.437       .  S
C1293      C1434   1.436       .  S
C1295      C1432   1.436       .  S
C1296      O1297   1.274       .  A
C1296      C1437   1.436       .  S
C1298      C1299   1.412       .  A
C1298      C1303   1.412       .  A
C1298      C1527   1.489       .  S
C1299      C1300   1.403       .  A
C1299      H1304   1.084       .  S
C1300      C1426   1.438       .  S
C1300      C1301   1.394       .  A
C1301      C1302   1.394       .  A
C1301      H1305   1.086       .  S
C1302      C1438   1.440       .  S
C1302      C1303   1.403       .  A
C1303      H1306   1.084       .  S
O1307      C1323   1.275       .  A
O1307     Zn1313   2.026       .  S
C1308      O1324   1.272       .  A
C1308      O1321   1.274       .  A
C1308      C1417   1.435       .  S
O1309      C1322   1.273       .  A
O1309     Cd1316   2.074       .  S
O1310      C1328   1.274       .  A
O1310     Cd1319   2.066       .  S
O1311      C1325   1.275       .  A
O1311     Cd1315   2.080       .  S
O1312      C1323   1.272       .  A
O1312     Cd1315   2.067       .  S
Zn1313     O1324   2.018       .  S
Zn1313     O1326   2.021       .  S
Zn1313     O1318   1.941       .  S
O1314      C1325   1.272       .  A
O1314     Cd1319   2.069       .  S
Cd1315     O1317   2.074       .  S
Cd1315     O1318   1.994       .  S
Cd1316     O1320   2.074       .  S
Cd1316     O1329   2.074       .  S
Cd1316     O1318   2.005       .  S
O1317      C1327   1.275       .  A
O1318     Cd1319   1.994       .  S
Cd1319     O1321   2.071       .  S
O1320      C1327   1.274       .  A
C1322      O1326   1.274       .  A
C1322      C1416   1.436       .  S
C1323      C1423   1.435       .  S
C1325      C1421   1.437       .  S
C1327      C1419   1.436       .  S
C1328      O1329   1.274       .  A
C1328      C1425   1.434       .  S
C1330      C1335   1.412       .  A
C1330      C1547   1.492       .  S
C1331      C1332   1.404       .  A
C1331      H1336   1.084       .  S
C1332      C1420   1.440       .  S
C1333      C1334   1.395       .  A
C1333      H1337   1.086       .  S
C1334      C1431   1.441       .  S
C1334      C1335   1.403       .  A
C1335      H1338   1.084       .  S
C1339      C1344   1.414       .  A
C1339      C1537   1.498       .  S
C1340      C1341   1.404       .  A
C1340      H1345   1.083       .  S
C1341      C1428   1.442       .  S
C1341      C1342   1.393       .  A
C1342      H1346   1.086       .  S
C1343      C1415   1.440       .  S
C1343      C1344   1.404       .  A
C1344      H1347   1.083       .  S
C1348      C1349   1.413   1_455  A
C1348      C1406   1.491       .  S
C1349      C1350   1.404       .  A
C1349      H1354   1.084       .  S
C1350      C1436   1.441       .  S
C1350      C1351   1.395   1_655  A
C1351      H1355   1.086   1_455  S
C1352      C1424   1.439       .  S
C1352      C1353   1.402       .  A
C1353      H1356   1.084       .  S
C1357      C1358   1.411       .  A
C1357      C1362   1.412       .  A
C1357      C1396   1.489       .  S
C1358      C1359   1.403       .  A
C1358      H1363   1.084       .  S
C1359      C1418   1.439       .  S
C1359      C1360   1.395       .  A
C1360      C1361   1.395       .  A
C1360      H1364   1.086       .  S
C1361      C1433   1.440       .  S
C1361      C1362   1.403       .  A
C1362      H1365   1.084       .  S
C1366      C1367   1.413       .  A
C1367      C1368   1.403       .  A
C1367      H1372   1.083       .  S
C1368      C1429   1.441       .  S
C1368      C1369   1.395       .  A
C1369      H1373   1.086       .  S
C1370      C1422   1.441       .  S
C1370      C1371   1.403       .  A
C1371      H1374   1.083       .  S
C1375      H1376   1.111       .  S
C1375      C1381   1.539       .  S
C1375      C1380   1.539       .  S
C1377      H1378   1.111       .  S
C1377      C1383   1.539       .  S
C1377      C1384   1.539   1_655  S
C1379      C1382   1.378       .  D
C1379      C1460   1.488       .  S
C1380      C1383   1.377       .  D
C1380      C1443   1.488       .  S
C1381      C1384   1.377   1_655  D
C1381      C1450   1.489       .  S
C1382      C1399   1.489       .  S
C1383      C1389   1.488       .  S
C1384      C1409   1.489       .  S
C1385      C1386   1.409   1_545  A
C1385      C1390   1.401       .  A
C1385      H1391   1.083       .  S
C1387      C1388   1.400       .  A
C1387      H1392   1.083       .  S
C1388      H1393   1.083       .  S
C1389      C1390   1.402   1_565  A
C1390      H1394   1.083       .  S
C1395      C1396   1.407       .  A
C1395      C1400   1.400       .  A
C1395      H1401   1.083       .  S
C1396      C1397   1.406       .  A
C1397      C1398   1.400       .  A
C1397      H1402   1.083       .  S
C1398      C1399   1.406       .  A
C1398      H1403   1.083       .  S
C1399      C1400   1.403       .  A
C1400      H1404   1.083       .  S
C1405      C1406   1.408   1_655  A
C1405      C1410   1.401       .  A
C1405      H1411   1.083       .  S
C1407      C1408   1.399       .  A
C1407      H1412   1.083       .  S
C1408      H1413   1.083       .  S
C1409      C1410   1.402   1_455  A
C1410      H1414   1.083       .  S
C1415      C1416   1.206       .  T
C1417      C1418   1.206       .  T
C1419      C1420   1.206       .  T
C1421      C1422   1.207       .  T
C1423      C1424   1.206       .  T
C1425      C1426   1.205       .  T
C1427      C1428   1.207       .  T
C1429      C1430   1.207       .  T
C1431      C1432   1.207       .  T
C1433      C1434   1.206       .  T
C1435      C1436   1.207       .  T
C1437      C1438   1.206       .  T
C1439      C1440   1.408       .  A
C1439      C1444   1.401       .  A
C1439      H1445   1.083       .  S
C1441      C1442   1.399       .  A
C1441      H1446   1.083       .  S
C1442      H1447   1.083       .  S
C1443      C1444   1.402       .  A
C1444      H1448   1.083       .  S
C1449      C1450   1.404       .  A
C1449      C1454   1.398       .  A
C1449      H1455   1.083       .  S
C1451      C1452   1.401       .  A
C1451      H1456   1.083       .  S
C1452      C1453   1.408       .  A
C1452      H1457   1.083       .  S
C1454      H1458   1.083       .  S
C1459      C1460   1.404       .  A
C1459      C1464   1.399       .  A
C1459      H1465   1.083       .  S
C1460      C1461   1.403       .  A
C1461      C1462   1.401       .  A
C1461      H1466   1.083       .  S
C1462      C1463   1.409       .  A
C1462      H1467   1.082       .  S
C1463      C1464   1.407       .  A
C1464      H1468   1.083       .  S
C1469      C1470   1.207       .  T
C1471      C1472   1.205       .  T
C1473      C1474   1.205       .  T
C1475      C1476   1.207       .  T
C1477      C1478   1.207       .  T
C1479      C1480   1.205       .  T
C1481      C1482   1.207       .  T
C1483      C1484   1.207       .  T
C1485      C1486   1.206       .  T
C1487      C1488   1.206       .  T
C1489      C1490   1.206       .  T
C1491      C1492   1.206       .  T
C1493      C1494   1.404       .  A
C1493      C1498   1.398       .  A
C1493      H1499   1.083       .  S
C1494      C1495   1.403       .  A
C1495      C1496   1.401       .  A
C1495      H1500   1.083       .  S
C1496      C1497   1.408       .  A
C1496      H1501   1.083       .  S
C1497      C1498   1.407       .  A
C1498      H1502   1.083       .  S
C1503      C1504   1.398       .  A
C1503      C1508   1.402       .  A
C1503      H1509   1.083       .  S
C1505      C1506   1.398       .  A
C1505      H1510   1.083       .  S
C1506      H1511   1.077       .  S
C1507      C1508   1.417       .  A
C1508      H1512   1.078       .  S
C1513      C1514   1.402   1_545  A
C1513      C1518   1.401       .  A
C1513      H1519   1.083       .  S
C1514      C1515   1.405       .  A
C1515      C1516   1.400       .  A
C1515      H1520   1.083       .  S
C1516      C1517   1.407       .  A
C1517      C1518   1.408   1_565  A
C1518      H1522   1.083       .  S
C1523      C1524   1.405       .  A
C1523      C1528   1.399       .  A
C1523      H1529   1.083       .  S
C1524      C1525   1.403       .  A
C1525      C1526   1.401       .  A
C1525      H1530   1.083       .  S
C1526      C1527   1.408       .  A
C1526      H1531   1.083       .  S
C1527      C1528   1.406       .  A
C1528      H1532   1.083       .  S
C1533      C1534   1.402       .  A
C1533      C1538   1.403       .  A
C1533      H1539   1.083       .  S
C1535      C1536   1.399       .  A
C1535      H1540   1.080       .  S
C1536      H1541   1.082       .  S
C1537      C1538   1.411       .  A
C1538      H1542   1.082       .  S
C1543      C1548   1.401       .  A
C1543      H1549   1.083       .  S
C1544      C1545   1.405       .  A
C1545      C1546   1.400       .  A
C1545      H1550   1.083       .  S
C1546      C1547   1.407       .  A
C1546      H1551   1.083       .  S
C1548      H1552   1.083       .  S
