geometry optimzed in LAMMPS
_audit_creation_date              2020-11-30 
_audit_creation_method            'lammps2cif' 
_symmetry_space_group_name_H-M    'P1' 
_symmetry_Int_Tables_number       1 
_symmetry_cell_setting            triclinic 
loop_ 
_symmetry_equiv_pos_as_xyz 
  x,y,z 
_cell_length_a                    30.01589861 
_cell_length_b                    29.604293402370615 
_cell_length_c                    29.45440617193703 
_cell_angle_alpha                 92.36645666948151 
_cell_angle_beta                  88.59441022301063 
_cell_angle_gamma                 119.20470682675965 
loop_ 
_atom_site_label 
_atom_site_type_symbol 
_atom_site_fract_x 
_atom_site_fract_y 
_atom_site_fract_z 
_atom_site_charge 
C1          C  0.83407516  0.25644710  0.02923277     0.03100
C2          C  0.79222092  0.23866432  0.99992094    -0.13000
C3          C  0.77219914  0.18498593  0.48050867     0.00600
C4          C  0.79535219  0.15487208  0.48987735    -0.11500
C5          C  0.84120707  0.17592809  0.51472394     0.03100
C6          C  0.85936548  0.22735072  0.03282913    -0.11000
H7          H  0.77484925  0.26280528  0.99564511     0.08700
H8          H  0.77904245  0.11566583  0.47610520     0.06300
H9          H  0.89270288  0.24179014  0.05426998     0.06100
C10         C  0.12166569  0.37858155  0.44339971     0.03100
C11         C  0.16002375  0.40163188  0.97365338    -0.13000
C12         C  0.17260513  0.37152669  0.00034891     0.00600
C13         C  0.14671929  0.31766562  0.99406537    -0.11500
C14         C  0.10905389  0.29433416  0.46408815     0.03100
C15         C  0.09494913  0.32418876  0.43843862    -0.11000
H16         H  0.18042313  0.44340674  0.97833223     0.08700
H17         H  0.15607011  0.29443263  0.01532787     0.06300
H18         H  0.06271247  0.30527023  0.41560030     0.06100
C19         C  0.31372480  0.17361618  0.02886075     0.03100
C20         C  0.26008764  0.14441637  0.03100627    -0.13000
C21         C  0.22991830  0.15572205  0.00292204     0.00600
C22         C  0.25760538  0.19786989  0.47216047    -0.11500
C23         C  0.31085631  0.22622905  0.46862567     0.03100
C24         C  0.34099085  0.21613401  0.49752207    -0.11000
H25         H  0.24204047  0.11325500  0.05460442     0.08700
H26         H  0.23466040  0.20612483  0.44961048     0.06300
H27         H  0.38222923  0.23874912  0.49542190     0.06100
C28         C  0.10001078  0.81291415  0.00888213     0.03100
C29         C  0.07055258  0.83745944  0.00398000    -0.13000
C30         C  0.09157469  0.87907372  0.47794879     0.00600
C31         C  0.13686447  0.89510395  0.45269143    -0.11500
C32         C  0.16368979  0.86716772  0.45363662     0.03100
C33         C  0.14652407  0.82472087  0.48172870    -0.11000
H34         H  0.03690154  0.82627621  0.02507835     0.08700
H35         H  0.15101254  0.92890650  0.43204390     0.06300
H36         H  0.16820394  0.80440296  0.48367030     0.06100
C37         C  0.80932135  0.68042002  0.50414225     0.03100
C38         C  0.83988615  0.73436805  0.50426126    -0.13000
C39         C  0.83155935  0.76617929  0.53596832     0.00600
C40         C  0.79282371  0.74415669  0.06897831    -0.11500
C41         C  0.76398495  0.68993257  0.07125943     0.03100
C42         C  0.77413816  0.65855683  0.04023701    -0.11000
H43         H  0.86889975  0.75168197  0.47817606     0.08700
H44         H  0.78543672  0.76863795  0.09279575     0.06300
H45         H  0.75138528  0.61676625  0.04101160     0.06100
C46         C  0.62213408  0.89559843  0.02003687     0.03100
C47         C  0.67549688  0.92163889  0.01783098    -0.13000
C48         C  0.70335947  0.90722443  0.48562108     0.00600
C49         C  0.67567286  0.86918749  0.45229235    -0.11500
C50         C  0.62192713  0.84199162  0.45382173     0.03100
C51         C  0.59641244  0.85469107  0.48854625    -0.11000
H52         H  0.69731005  0.95223235  0.04271048     0.08700
H53         H  0.69599068  0.86102436  0.42515218     0.06300
H54         H  0.55509153  0.83400920  0.49032296     0.06100
O55         O  0.94466338  0.09474081  0.46180412    -0.88300
C56         C  0.04554896  0.11505184  0.05542255     0.87700
Mg57       Mg  0.86578444  0.03960382  0.46921802     1.58100
O58         O  0.05280107  0.04485643  0.46003682    -0.88100
O59         O  0.00744852  0.11088501  0.41450091    -0.75400
C60         C  0.85512746  0.82301020  0.02773771     0.92700
O61         O  0.92482336  0.08676933  0.06657620    -0.75200
O62         O  0.83029241  0.84748042  0.03393552    -0.82700
Mg63       Mg  0.97667012  0.14682815  0.01520916     1.58000
C64         C  0.06395651  0.90922169  0.47926549     0.92700
O65         O  0.03181720  0.21672326  0.47507339    -0.81000
H66         H  0.06355000  0.03927556  0.39322849    -0.06300
C67         C  0.97018919  0.95972676  0.06547388     0.87600
O68         O  0.87566657  0.97890072  0.42523938    -0.75500
O69         O  0.03129368  0.11915001  0.01756572    -0.88300
O70         O  0.08906042  0.95833548  0.48585841    -0.81100
C71         C  0.17367899  0.12472366  0.00288428     0.89500
C72         C  0.07893245  0.23757578  0.46426764     0.92600
Mg73       Mg  0.95717354  0.91283420  0.47220119     1.58000
O74         O  0.90026310  0.84443397  0.01173370    -0.81000
O75         O  0.00911671  0.97279604  0.42064905    -0.75200
O76         O  0.14860693  0.14634701  0.99019966    -0.81100
O77         O  0.91840306  0.17533844  0.01346185    -0.82800
O78         O  0.78276345  0.91038300  0.49665131    -0.81100
C79         C  0.04323025  0.02005210  0.42353084     0.87100
O80         O  0.90159709  0.93918758  0.46992069    -0.88200
O81         O  0.98784988  0.96554773  0.02646972    -0.88300
O82         O  0.92477545  0.95046386  0.07340384    -0.75400
Mg83       Mg  0.07612632  0.12606771  0.45808548     1.58000
O84         O  0.15195619  0.07706961  0.01218398    -0.82800
H85         H  0.93784142  0.09830216  0.39490349    -0.06500
O86         O  0.88022638  0.01505972  0.02677442    -0.88000
H87         H  0.86974656  0.02044634  0.09365203    -0.06300
H88         H  0.88797602  0.91980650  0.40388703    -0.06500
C89         C  0.89014219  0.03974365  0.06339353     0.87000
C90         C  0.96216112  0.10169261  0.42278676     0.87600
C91         C  0.88810741  0.94442653  0.43209457     0.87700
H92         H  0.99453015  0.96421302  0.09368867    -0.06500
O93         O  0.05832392  0.08093199  0.06279305    -0.75500
Mg94       Mg  0.85581544  0.93357595  0.02952522     1.58000
H95         H  0.04612404  0.14039611  0.08317999    -0.06500
C96         C  0.87013847  0.15052090  0.00853894     0.92700
O97         O  0.78256599  0.98254113  0.47798620    -0.82700
C98         C  0.75938088  0.93455810  0.48572816     0.92700
O99         O  0.10223661  0.21161861  0.45885873    -0.82700
Mg100      Mg  0.06756097  0.01959901  0.01900873     1.58200
O101        O  0.84648530  0.10209741  0.99873079    -0.81100
O102        O  0.01547458  0.88491524  0.47663050    -0.82700
C103        C  0.97157210  0.55581245  0.26255300    -0.02500
C104        C  0.47476298  0.05077762  0.25533012    -0.02500
C105        C  0.43507396  0.52302740  0.25291629    -0.02500
C106        C  0.49143588  0.94067173  0.18611282    -0.11400
C107        C  0.53292241  0.97124165  0.15822491     0.15200
C108        C  0.55149788  0.02482882  0.15922322     0.02100
C109        C  0.52957009  0.04639183  0.18871306    -0.15700
C110        C  0.49195283  0.01798205  0.22188804    -0.10500
C111        C  0.46848985  0.96246486  0.21546369     0.08800
C112        C  0.55118897  0.94621411  0.12342858     0.09800
S113        S  0.60231750  0.06830800  0.12259139    -0.24900
H114        H  0.54088829  0.08650851  0.18362431     0.20100
S115        S  0.40297365  0.91754179  0.23005608    -0.30600
H116        H  0.47390054  0.89900174  0.18144490     0.10400
C117        C  0.57913190  0.92162998  0.13533300     0.03600
C118        C  0.60100582  0.90430455  0.10090834    -0.12900
C119        C  0.59589219  0.91162255  0.05490758    -0.08500
C120        C  0.56730420  0.93563087  0.04311663     0.07100
C121        C  0.54421393  0.95134626  0.07732313    -0.13600
S122        S  0.58889765  0.91448689  0.19427750    -0.30500
H123        H  0.62291336  0.88578118  0.10972792     0.11300
S124        S  0.55700748  0.94309264  0.48843095    -0.27600
H125        H  0.52289653  0.97039375  0.06807002     0.08500
H126        H  0.40956390  0.87381931  0.23293911     0.27000
H127        H  0.62281469  0.89489170  0.18655947     0.21800
H128        H  0.60565369  0.95437371  0.47214095     0.27100
H129        H  0.62906958  0.04032565  0.12099741     0.15900
C130        C  0.57516247  0.72338222  0.37397774    -0.11400
C131        C  0.53138588  0.72101503  0.35538862     0.15200
C132        C  0.51840909  0.75963920  0.36816807     0.02100
C133        C  0.54975692  0.79966903  0.39880437    -0.15700
C134        C  0.59213324  0.80048357  0.41925128    -0.10500
C135        C  0.60422559  0.76100718  0.40689569     0.08800
C136        C  0.49682751  0.67267254  0.32965577     0.09800
S137        S  0.46178355  0.75940869  0.34850267    -0.24900
H138        H  0.53999517  0.82963524  0.40787666     0.20100
S139        S  0.65241429  0.75261053  0.43492103    -0.30600
H140        H  0.58445430  0.69296669  0.36527114     0.10400
C141        C  0.49224772  0.66954417  0.28223058     0.03600
C142        C  0.46746361  0.62056648  0.25989832    -0.12900
C143        C  0.44951278  0.57348565  0.28313280    -0.08500
C144        C  0.45782854  0.57890642  0.33162405     0.07100
C145        C  0.47639805  0.62731382  0.35361612    -0.13600
S146        S  0.52107558  0.72769084  0.24993364    -0.30500
H147        H  0.46469075  0.61890609  0.22331502     0.11300
S148        S  0.46136212  0.53242764  0.36729886    -0.27600
H149        H  0.48247889  0.63080308  0.39003527     0.08500
H150        H  0.64462595  0.77119197  0.97778646     0.27000
H151        H  0.50909297  0.70308410  0.20660678     0.21800
H152        H  0.44390565  0.54640847  0.40741297     0.27100
H153        H  0.43359028  0.70663685  0.33601981     0.15900
C154        C  0.64233517  0.65580041  0.13801265    -0.11400
C155        C  0.63581685  0.61289076  0.16199341     0.15200
C156        C  0.67334156  0.59721095  0.15776787     0.02100
C157        C  0.71613104  0.62485544  0.12998417    -0.15700
C158        C  0.72081460  0.66569739  0.10382472    -0.10500
C159        C  0.68271011  0.68065422  0.10763961     0.08800
C160        C  0.58579365  0.58224439  0.18503616     0.09800
S161        S  0.66779845  0.54080870  0.18424866    -0.24900
H162        H  0.74494919  0.61286884  0.12714691     0.20100
S163        S  0.67978681  0.72700366  0.07153966    -0.30600
H164        H  0.61330438  0.66756081  0.14038431     0.10400
C165        C  0.58012696  0.57684775  0.23228040     0.03600
C166        C  0.53086439  0.55307135  0.25139829    -0.12900
C167        C  0.48629078  0.53884564  0.22546922    -0.08500
C168        C  0.49418756  0.54908507  0.17761616     0.07100
C169        C  0.54240942  0.56535475  0.15841750    -0.13600
S170        S  0.63532724  0.60444271  0.26877750    -0.30500
H171        H  0.52720753  0.54877596  0.28774065     0.11300
S172        S  0.45073266  0.55600288  0.14033156    -0.27600
H173        H  0.54778830  0.57169073  0.12225855     0.08500
H174        H  0.69708856  0.71170134  0.03210938     0.27000
H175        H  0.60872096  0.58918615  0.31023504     0.21800
H176        H  0.47019883  0.54810010  0.09861805     0.27100
H177        H  0.61423691  0.51224595  0.18389530     0.15900
C178        C  0.83341313  0.63164800  0.38973081    -0.11400
C179        C  0.85211494  0.59921570  0.40326135     0.15200
C180        C  0.85086024  0.58885936  0.44983732     0.02100
C181        C  0.83386885  0.61349468  0.48194253    -0.15700
C182        C  0.81779947  0.64823445  0.46861023    -0.10500
C183        C  0.81585895  0.65578379  0.42166942     0.08800
C184        C  0.88033193  0.58437565  0.36914958     0.09800
S185        S  0.87277542  0.54661900  0.47048746    -0.24900
H186        H  0.83537028  0.60730888  0.51775638     0.20100
S187        S  0.79292262  0.69693209  0.40029815    -0.30600
H188        H  0.83440149  0.63984772  0.35407608     0.10400
C189        C  0.85590217  0.54704686  0.33420805     0.03600
C190        C  0.88525051  0.53803010  0.30078082    -0.12900
C191        C  0.93932246  0.56768648  0.29941118    -0.08500
C192        C  0.96318399  0.60375447  0.33704725     0.07100
C193        C  0.93340942  0.61109077  0.37078922    -0.13600
S194        S  0.78711952  0.50997742  0.33288201    -0.30500
H195        H  0.86511924  0.50711197  0.27613631     0.11300
S196        S  0.03159342  0.64406841  0.34234283    -0.27600
H197        H  0.95161984  0.63910920  0.39843362     0.08500
H198        H  0.75927582  0.69051979  0.43661558     0.27000
H199        H  0.78356143  0.47405234  0.29841124     0.21800
H200        H  0.03189418  0.68018086  0.37508379     0.27100
H201        H  0.86310710  0.51602644  0.43031312     0.15900
C202        C  0.02286219  0.68233301  0.19080385    -0.11400
C203        C  0.04460329  0.66911550  0.15400664     0.15200
C204        C  0.04630070  0.62263655  0.15424674     0.02100
C205        C  0.02555387  0.59017326  0.19111688    -0.15700
C206        C  0.00106374  0.60116541  0.22860951    -0.10500
C207        C  0.99880602  0.64878838  0.22658941     0.08800
C208        C  0.06019394  0.70279675  0.11430983     0.09800
S209        S  0.07217235  0.60122596  0.10755870    -0.24900
H210        H  0.02753603  0.55458055  0.18993531     0.20100
S211        S  0.96141896  0.66840414  0.26309635    -0.30600
H212        H  0.02170458  0.71831659  0.18980317     0.10400
C213        C  0.02563561  0.69380102  0.07898177     0.03600
C214        C  0.03972982  0.72978960  0.04449210    -0.12900
C215        C  0.08740067  0.77507351  0.04509136    -0.08500
C216        C  0.12151501  0.78429904  0.08112392     0.07100
C217        C  0.10781145  0.74783329  0.11488300    -0.13600
S218        S  0.96291323  0.63740253  0.07881904    -0.30500
H219        H  0.01345075  0.72302795  0.01719045     0.11300
S220        S  0.18166904  0.84323844  0.08764087    -0.27600
H221        H  0.13366189  0.75552241  0.14282580     0.08500
H222        H  0.94964987  0.69421856  0.23031689     0.27000
H223        H  0.94408949  0.65044254  0.04114617     0.21800
H224        H  0.16445678  0.87592246  0.07112510     0.27100
H225        H  0.10698777  0.65071089  0.09243452     0.15900
C226        C  0.26245865  0.87569056  0.36556196    -0.11400
C227        C  0.30447634  0.92337627  0.37848016     0.15200
C228        C  0.30069407  0.95017685  0.41789881     0.02100
C229        C  0.25446993  0.93077182  0.44166812    -0.15700
C230        C  0.21173226  0.88442231  0.42760298    -0.10500
C231        C  0.21619144  0.85576575  0.38978548     0.08800
C232        C  0.34588801  0.95059681  0.34493108     0.09800
S233        S  0.35255387  0.01120415  0.43778612    -0.24900
H234        H  0.25159469  0.95234437  0.47118660     0.20100
S235        S  0.16389836  0.79506508  0.36929823    -0.30600
H236        H  0.26478508  0.85540605  0.33489334     0.10400
C237        C  0.39167583  0.94865385  0.34384631     0.03600
C238        C  0.43157490  0.98131005  0.31487939    -0.12900
C239        C  0.42672178  0.01538673  0.28516535    -0.08500
C240        C  0.37999489  0.01819527  0.28906420     0.07100
C241        C  0.34038471  0.98420618  0.31695139    -0.13600
S242        S  0.39966257  0.90557595  0.38016408    -0.30500
H243        H  0.46701598  0.98003906  0.31477628     0.11300
S244        S  0.37166118  0.07151787  0.27123006    -0.27600
H245        H  0.30581738  0.98710451  0.32042829     0.08500
H246        H  0.12413558  0.80378731  0.38518210     0.27000
H247        H  0.44681949  0.91414266  0.36195396     0.21800
H248        H  0.31812546  0.04408409  0.26771479     0.27100
H249        H  0.39175052  0.00132613  0.42252297     0.15900
C250        C  0.41224412  0.14212345  0.07545809    -0.11400
C251        C  0.40264461  0.14287536  0.12226428     0.15200
C252        C  0.36576151  0.15621489  0.13813292     0.02100
C253        C  0.33751369  0.16614648  0.10681393    -0.15700
C254        C  0.34547611  0.16329556  0.05990304    -0.10500
C255        C  0.38384561  0.15176197  0.04408605     0.08800
C256        C  0.42557038  0.12206419  0.15348515     0.09800
S257        S  0.35300434  0.15843246  0.19819941    -0.24900
H258        H  0.30869967  0.17580960  0.11881023     0.20100
S259        S  0.39663772  0.14598235  0.98456454    -0.30600
H260        H  0.44023970  0.13132774  0.06325849     0.10400
C261        C  0.40688844  0.06857727  0.15447620     0.03600
C262        C  0.42405807  0.04888678  0.18782304    -0.12900
C263        C  0.46043495  0.08077206  0.22124975    -0.08500
C264        C  0.47998765  0.13553593  0.21927612     0.07100
C265        C  0.46225693  0.15498025  0.18521507    -0.13600
S266        S  0.35835565  0.02449533  0.11503123    -0.30500
H267        H  0.40740316  0.00735781  0.18891123     0.11300
S268        S  0.52201032  0.18184565  0.26144368    -0.27600
H269        H  0.47522017  0.19606292  0.18431817     0.08500
H270        H  0.34194679  0.12085688  0.47134362     0.27000
H271        H  0.35773380  0.97892351  0.12780898     0.21800
H272        H  0.53396591  0.22714073  0.23846770     0.27100
H273        H  0.31682063  0.17528095  0.19462191     0.15900
C274        C  0.35942917  0.41234909  0.33761063    -0.11400
C275        C  0.38924157  0.38818407  0.33901146     0.15200
C276        C  0.43145622  0.40399513  0.30945966     0.02100
C277        C  0.44448341  0.44557611  0.28104310    -0.15700
C278        C  0.41799151  0.47436066  0.28265441    -0.10500
C279        C  0.37262294  0.45455485  0.31013505     0.08800
C280        C  0.37450903  0.34693443  0.37224180     0.09800
S281        S  0.47065554  0.37322233  0.30647288    -0.24900
H282        H  0.47589823  0.45498528  0.25779638     0.20100
S283        S  0.33356818  0.48541431  0.31571535    -0.30600
H284        H  0.32649748  0.39913790  0.35991165     0.10400
C285        C  0.37900059  0.35880523  0.41941438     0.03600
C286        C  0.35920762  0.31860536  0.45014950    -0.12900
C287        C  0.33494064  0.26676303  0.43473704    -0.08500
C288        C  0.33202151  0.25484248  0.38757007     0.07100
C289        C  0.35137562  0.29503004  0.35681229    -0.13600
S290        S  0.40990388  0.42516311  0.44066145    -0.30500
H291        H  0.36165002  0.32741247  0.48635703     0.11300
S292        S  0.30368415  0.18928722  0.36463375    -0.27600
H293        H  0.34774001  0.28582951  0.32063461     0.08500
H294        H  0.29132871  0.44513234  0.33723732     0.27000
H295        H  0.39672711  0.41449996  0.48666348     0.21800
H296        H  0.31517250  0.16835317  0.40168886     0.27100
H297        H  0.46254458  0.35655483  0.35137946     0.15900
C298        C  0.29522731  0.44636794  0.06742381    -0.11400
C299        C  0.27630403  0.43856098  0.11218326     0.15200
C300        C  0.22318992  0.40960544  0.11977121     0.02100
C301        C  0.19033124  0.38889456  0.08255509    -0.15700
C302        C  0.20936527  0.39562699  0.03787131    -0.10500
C303        C  0.26241257  0.42471753  0.03024863     0.08800
C304        C  0.31327616  0.45890069  0.15000441     0.09800
S305        S  0.19510200  0.39710420  0.17588771    -0.24900
H306        H  0.14953350  0.36666936  0.08844952     0.20100
S307        S  0.29292859  0.44141930  0.47600206    -0.30600
H308        H  0.33603855  0.46835951  0.06153389     0.10400
C309        C  0.34304274  0.43590615  0.15920144     0.03600
C310        C  0.38017479  0.45798559  0.19284095    -0.12900
C311        C  0.38922423  0.50315040  0.21909304    -0.08500
C312        C  0.35558864  0.52382973  0.21148111     0.07100
C313        C  0.31911262  0.50177166  0.17647722    -0.13600
S314        S  0.33426732  0.37844292  0.12759521    -0.30500
H315        H  0.40437093  0.44094411  0.19744908     0.11300
S316        S  0.35572570  0.57702920  0.24404617    -0.27600
H317        H  0.29507058  0.51839032  0.16911094     0.08500
H318        H  0.25712820  0.39448913  0.45491183     0.27000
H319        H  0.36914542  0.37016731  0.15209840     0.21800
H320        H  0.30604616  0.56623468  0.23308833     0.27100
H321        H  0.23558888  0.39559579  0.19745333     0.15900
C322        C  0.07575406  0.47301177  0.41562802    -0.11400
C323        C  0.07402735  0.46858907  0.36804729     0.15200
C324        C  0.08948088  0.43553969  0.34525930     0.02100
C325        C  0.10580153  0.40739487  0.37059947    -0.15700
C326        C  0.10542636  0.41018127  0.41827413    -0.10500
C327        C  0.08982592  0.44320874  0.44096886     0.08800
C328        C  0.05098207  0.49478711  0.34377062     0.09800
S329        S  0.08777092  0.42632328  0.28425681    -0.24900
H330        H  0.11789274  0.38226359  0.35304826     0.20100
S331        S  0.08904110  0.45264861  0.00103312    -0.30600
H332        H  0.06327800  0.49783490  0.43319517     0.10400
C333        C  0.99891152  0.47851829  0.34873880     0.03600
C334        C  0.97747118  0.50203848  0.32397570    -0.12900
C335        C  0.00576406  0.54161937  0.29244576    -0.08500
C336        C  0.05997681  0.56025924  0.29043667     0.07100
C337        C  0.08093239  0.53567584  0.31541930    -0.13600
S338        S  0.95836361  0.42472904  0.38406610    -0.30500
H339        H  0.93660326  0.48621096  0.32657627     0.11300
S340        S  0.10736563  0.61427614  0.25920284    -0.27600
H341        H  0.12149149  0.54872041  0.31294176     0.08500
H342        H  0.07143475  0.40016970  0.00945406     0.27000
H343        H  0.91214110  0.42431292  0.37617675     0.21800
H344        H  0.08851645  0.64849254  0.26870543     0.27100
H345        H  0.04394413  0.43087206  0.27751577     0.15900
C346        C  0.88300706  0.46565549  0.16269055    -0.11400
C347        C  0.89404220  0.42481911  0.16152616     0.15200
C348        C  0.92528346  0.42330713  0.19519409     0.02100
C349        C  0.94770123  0.46388483  0.22720630    -0.15700
C350        C  0.93802150  0.50665298  0.22991206    -0.10500
C351        C  0.90406084  0.50619939  0.19607423     0.08800
C352        C  0.87587028  0.38565633  0.12345731     0.09800
S353        S  0.94037267  0.37136837  0.19791181    -0.24900
H354        H  0.97522623  0.46151512  0.24819500     0.20100
S355        S  0.88846906  0.55777135  0.19256058    -0.30600
H356        H  0.85857375  0.46617475  0.13653589     0.10400
C357        C  0.82592621  0.34340904  0.12291007     0.03600
C358        C  0.81282006  0.30296520  0.09035455    -0.12900
C359        C  0.84879748  0.30358128  0.05853613    -0.08500
C360        C  0.89817996  0.34718772  0.05781042     0.07100
C361        C  0.91122563  0.38749340  0.09039071    -0.13600
S362        S  0.78019681  0.33911886  0.16588702    -0.30500
H363        H  0.77501369  0.26951131  0.09088944     0.11300
S364        S  0.94620929  0.35355419  0.01659592    -0.27600
H365        H  0.94969761  0.41999380  0.09078573     0.08500
H366        H  0.86467483  0.54345382  0.14983941     0.27000
H367        H  0.73980569  0.29121438  0.15064628     0.21800
H368        H  0.90538136  0.32178161  0.48022128     0.27100
H369        H  0.89244353  0.33179098  0.18310660     0.15900
C370        C  0.55273734  0.10467669  0.36841767    -0.11400
C371        C  0.60325997  0.12392350  0.35376412     0.15200
C372        C  0.61308538  0.12988363  0.30675491     0.02100
C373        C  0.57240684  0.10961886  0.27598430    -0.15700
C374        C  0.52027279  0.08547966  0.28987729    -0.10500
C375        C  0.51297590  0.09204143  0.33764244     0.08800
C376        C  0.64474618  0.13791831  0.38780478     0.09800
S377        S  0.67679340  0.16438433  0.28326706    -0.24900
H378        H  0.58375920  0.11641524  0.24145583     0.20100
S379        S  0.45839816  0.09621645  0.36019202    -0.30600
H380        H  0.54458117  0.10181897  0.40445524     0.10400
C381        C  0.65100804  0.16997907  0.42678552     0.03600
C382        C  0.69023860  0.18091383  0.45762397    -0.12900
C383        C  0.72766462  0.16595940  0.44850985    -0.08500
C384        C  0.72233255  0.13566959  0.40811355     0.07100
C385        C  0.67960261  0.11955231  0.38031168    -0.13600
S386        S  0.61216875  0.20087045  0.43612432    -0.30500
H387        H  0.69234384  0.20271257  0.48860939     0.11300
S388        S  0.77035248  0.12039563  0.38650367    -0.27600
H389        H  0.67526844  0.09487280  0.35064469     0.08500
H390        H  0.47387315  0.10826435  0.40582560     0.27000
H391        H  0.63826263  0.23183163  0.47435065     0.21800
H392        H  0.81171501  0.16889477  0.39906359     0.27100
H393        H  0.69786373  0.19931864  0.32056974     0.15900
C394        C  0.83381618  0.25321746  0.53152642     0.03100
C395        C  0.79191335  0.23424987  0.50229417    -0.13000
C396        C  0.77299360  0.19048073  0.97634704     0.00600
C397        C  0.79602159  0.15986329  0.98385948    -0.11500
C398        C  0.84085206  0.17907714  0.00979457     0.03100
C399        C  0.85980925  0.22505113  0.53606650    -0.11000
H400        H  0.77495156  0.25851283  0.49685155     0.08700
H401        H  0.78021447  0.12164688  0.96786127     0.06300
H402        H  0.89367304  0.24084996  0.55698136     0.06100
C403        C  0.11940530  0.37786395  0.94272532     0.03100
C404        C  0.16208070  0.40270663  0.47439993    -0.13000
C405        C  0.17491081  0.37289652  0.50117023     0.00600
C406        C  0.14913395  0.31898758  0.49523806    -0.11500
C407        C  0.10685841  0.29342676  0.96262871     0.03100
C408        C  0.09274058  0.32352444  0.93740616    -0.11000
H409        H  0.18197450  0.44449048  0.47914452     0.08700
H410        H  0.15857841  0.29601950  0.51675523     0.06300
H411        H  0.06054350  0.30476061  0.91449886     0.06100
C412        C  0.31807143  0.17647836  0.52870484     0.03100
C413        C  0.26452892  0.14732983  0.53144859    -0.13000
C414        C  0.23397022  0.15813102  0.50344698     0.00600
C415        C  0.25389034  0.19558693  0.97191041    -0.11500
C416        C  0.30709754  0.22383876  0.96883951     0.03100
C417        C  0.33690895  0.21373526  0.99811254    -0.11000
H418        H  0.24686178  0.11644267  0.55535544     0.08700
H419        H  0.23122913  0.20406190  0.94919988     0.06300
H420        H  0.37814388  0.23672360  0.99658770     0.06100
C421        C  0.10291838  0.80989984  0.50893333     0.03100
C422        C  0.07458385  0.83597381  0.50563209    -0.13000
C423        C  0.08682860  0.87948468  0.97522473     0.00600
C424        C  0.13225013  0.89579255  0.95021420    -0.11500
C425        C  0.16010259  0.86910674  0.95257643     0.03100
C426        C  0.14388602  0.82786066  0.98198066    -0.11000
H427        H  0.04098721  0.82468224  0.52681272     0.08700
H428        H  0.14577304  0.92892195  0.92879373     0.06300
H429        H  0.16652214  0.80872479  0.98523105     0.06100
C430        C  0.81152195  0.68091364  0.00643843     0.03100
C431        C  0.83977214  0.73498658  0.00455539    -0.13000
C432        C  0.82993192  0.76685415  0.03508528     0.00600
C433        C  0.79383457  0.74349511  0.56942622    -0.11500
C434        C  0.76249807  0.68936608  0.56996008     0.03100
C435        C  0.77096601  0.65800774  0.53734309    -0.11000
H436        H  0.86794548  0.75213935  0.97779242     0.08700
H437        H  0.78819602  0.76812309  0.59444296     0.06300
H438        H  0.74671063  0.61634965  0.53680569     0.06100
C439        C  0.62396730  0.89387126  0.52126357     0.03100
C440        C  0.67742107  0.91972736  0.51973864    -0.13000
C441        C  0.70084478  0.90873463  0.98348626     0.00600
C442        C  0.67283382  0.87011954  0.95082235    -0.11500
C443        C  0.61925129  0.84249452  0.95337600     0.03100
C444        C  0.59415524  0.85567357  0.98811724    -0.11000
H445        H  0.69890031  0.94981174  0.54511965     0.08700
H446        H  0.69279730  0.86175307  0.92348703     0.06300
H447        H  0.55286612  0.83490558  0.99046892     0.06100
O448        O  0.94196021  0.09435510  0.95775313    -0.88300
C449        C  0.04932179  0.11571101  0.55829177     0.87700
Mg450      Mg  0.86282226  0.04001733  0.96517973     1.58100
O451        O  0.04944368  0.04443186  0.95730888    -0.88100
O452        O  0.00548960  0.11069500  0.91124629    -0.75400
C453        C  0.85828924  0.82255832  0.52976119     0.92700
O454        O  0.92835347  0.08618386  0.57027585    -0.75200
O455        O  0.83402288  0.84753397  0.53600910    -0.82700
Mg456      Mg  0.97946964  0.14706564  0.51914066     1.58000
C457        C  0.05909948  0.90924767  0.97613057     0.92700
O458        O  0.02924971  0.21554275  0.97067018    -0.81000
H459        H  0.05958401  0.03898790  0.89037642    -0.06300
C460        C  0.97427354  0.95937319  0.56832730     0.87600
O461        O  0.87133320  0.97805079  0.92189169    -0.75500
O462        O  0.03499564  0.12028949  0.52061922    -0.88300
O463        O  0.08419126  0.95826285  0.98264914    -0.81100
C464        C  0.17768430  0.12667277  0.50392396     0.89500
C465        C  0.07683478  0.23671087  0.96187860     0.92600
Mg466      Mg  0.95290889  0.91297769  0.96933062     1.58000
O467        O  0.90374645  0.84363501  0.51433835    -0.81000
O468        O  0.00467760  0.97274415  0.91770744    -0.75200
O469        O  0.15217694  0.14770301  0.49094936    -0.81100
O470        O  0.91989368  0.17416967  0.51786668    -0.82800
O471        O  0.77978218  0.91127752  0.99353357    -0.81100
C472        C  0.03933877  0.01976685  0.92069990     0.87100
O473        O  0.89754460  0.93918388  0.96713572    -0.88200
O474        O  0.99218160  0.96538938  0.52940582    -0.88300
O475        O  0.92874089  0.94991590  0.57605495    -0.75400
Mg476      Mg  0.07347324  0.12544677  0.95581021     1.58000
O477        O  0.15634070  0.07919964  0.51404161    -0.82800
H478        H  0.93603474  0.09769129  0.89066076    -0.06500
O479        O  0.88377316  0.01453255  0.53029888    -0.88000
H480        H  0.87405332  0.01944534  0.59736196    -0.06300
H481        H  0.88248308  0.91793123  0.90155271    -0.06500
C482        C  0.89396288  0.03901911  0.56704716     0.87000
C483        C  0.95998160  0.10119975  0.91890786     0.87600
C484        C  0.88342740  0.94346464  0.92929445     0.87700
H485        H  0.99844486  0.96373685  0.59664748    -0.06500
O486        O  0.06213369  0.08150122  0.56518364    -0.75500
Mg487      Mg  0.85951241  0.93317277  0.53234387     1.58000
H488        H  0.04986213  0.14068853  0.58636416    -0.06500
C489        C  0.87151486  0.14846367  0.51364701     0.92700
O490        O  0.77982859  0.98366035  0.97479180    -0.82700
C491        C  0.75662930  0.93575797  0.98288614     0.92700
O492        O  0.10031286  0.21089587  0.95737709    -0.82700
Mg493      Mg  0.07192716  0.02036422  0.52156072     1.58200
O494        O  0.84845994  0.09996183  0.50437512    -0.81100
O495        O  0.01066979  0.88484812  0.97366313    -0.82700
C496        C  0.96810804  0.55367089  0.76235679    -0.02500
C497        C  0.47269421  0.04700368  0.75426103    -0.02500
C498        C  0.43430695  0.52217141  0.75509201    -0.02500
C499        C  0.49117916  0.93647337  0.68766026    -0.11400
C500        C  0.53473725  0.96693252  0.66188894     0.15200
C501        C  0.55462825  0.02068661  0.66364427     0.02100
C502        C  0.53111212  0.04240646  0.69095801    -0.15700
C503        C  0.49114275  0.01412242  0.72225964    -0.10500
C504        C  0.46725525  0.95857936  0.71549325     0.08800
C505        C  0.55280493  0.94210588  0.62671017     0.09800
S506        S  0.60856813  0.06398236  0.62970398    -0.24900
H507        H  0.54216518  0.08208362  0.68434239     0.20100
S508        S  0.40070803  0.91447127  0.72743464    -0.30600
H509        H  0.47295050  0.89484203  0.68221825     0.10400
C510        C  0.58212772  0.91876786  0.63774930     0.03600
C511        C  0.60418032  0.90240309  0.60268258    -0.12900
C512        C  0.59729323  0.90878660  0.55679841    -0.08500
C513        C  0.56662940  0.93088092  0.54591986     0.07100
C514        C  0.54416806  0.94644715  0.58086044    -0.13600
S515        S  0.59350344  0.91220133  0.69637315    -0.30500
H516        H  0.62767775  0.88543986  0.61092066     0.11300
S517        S  0.56158438  0.95027879  0.98538118    -0.27600
H518        H  0.52171393  0.96452240  0.57232101     0.08500
H519        H  0.40552161  0.86966404  0.72990325     0.27000
H520        H  0.61794765  0.88247996  0.68774247     0.21800
H521        H  0.61089124  0.96114900  0.97145307     0.27100
H522        H  0.63358209  0.03431917  0.62951698     0.15900
C523        C  0.57178752  0.72212716  0.87605218    -0.11400
C524        C  0.52735197  0.71890460  0.85821488     0.15200
C525        C  0.51429372  0.75755925  0.87034922     0.02100
C526        C  0.54612765  0.79847026  0.89990066    -0.15700
C527        C  0.58918794  0.80018787  0.91975412    -0.10500
C528        C  0.60167343  0.76090099  0.90771646     0.08800
C529        C  0.49311003  0.67053280  0.83270654     0.09800
S530        S  0.45713188  0.75632926  0.85093359    -0.24900
H531        H  0.53629600  0.82847435  0.90855793     0.20100
S532        S  0.65190498  0.75455437  0.93418877    -0.30600
H533        H  0.58131442  0.69184883  0.86747835     0.10400
C534        C  0.48845870  0.66775559  0.78535556     0.03600
C535        C  0.46504993  0.61905172  0.76275343    -0.12900
C536        C  0.44812291  0.57201247  0.78567637    -0.08500
C537        C  0.45629311  0.57702596  0.83416387     0.07100
C538        C  0.47376125  0.62510522  0.85647335    -0.13600
S539        S  0.51596025  0.72611459  0.75337152    -0.30500
H540        H  0.46240117  0.61769273  0.72619666     0.11300
S541        S  0.46074286  0.53061015  0.86929191    -0.27600
H542        H  0.47996152  0.62852663  0.89286836     0.08500
H543        H  0.64369874  0.76845981  0.47836271     0.27000
H544        H  0.49755333  0.70198055  0.71058762     0.21800
H545        H  0.44485184  0.54484908  0.91019784     0.27100
H546        H  0.42811752  0.70261625  0.84280216     0.15900
C547        C  0.64471823  0.65964821  0.64237983    -0.11400
C548        C  0.63585603  0.61431350  0.66364299     0.15200
C549        C  0.67055768  0.59541837  0.65565444     0.02100
C550        C  0.71269704  0.62207440  0.62682455    -0.15700
C551        C  0.71963716  0.66552532  0.60329199    -0.10500
C552        C  0.68449394  0.68403999  0.61116164     0.08800
C553        C  0.58559147  0.58426977  0.68682341     0.09800
S554        S  0.66207352  0.53621106  0.67872750    -0.24900
H555        H  0.73926548  0.60745970  0.62127738     0.20100
S556        S  0.68431091  0.73483953  0.57935535    -0.30600
H557        H  0.61776546  0.67388193  0.64750572     0.10400
C558        C  0.57967992  0.57558372  0.73369266     0.03600
C559        C  0.53032415  0.55173240  0.75297293    -0.12900
C560        C  0.48575551  0.53881218  0.72750692    -0.08500
C561        C  0.49388249  0.55150582  0.68008461     0.07100
C562        C  0.54234606  0.56988792  0.66074440    -0.13600
S563        S  0.63488222  0.59851516  0.76968779    -0.30500
H564        H  0.52659845  0.54585340  0.78911456     0.11300
S565        S  0.44996335  0.55812470  0.64328321    -0.27600
H566        H  0.54770336  0.57872372  0.62500772     0.08500
H567        H  0.69896114  0.72062006  0.53781474     0.27000
H568        H  0.60818189  0.57911676  0.81051584     0.21800
H569        H  0.46588303  0.54374349  0.60247176     0.27100
H570        H  0.60848073  0.51048657  0.67991270     0.15900
C571        C  0.82909012  0.62700791  0.89230414    -0.11400
C572        C  0.85123769  0.59747340  0.90544795     0.15200
C573        C  0.85444103  0.59039701  0.95219628     0.02100
C574        C  0.83904775  0.61609597  0.98465755    -0.15700
C575        C  0.81975885  0.64821510  0.97142279    -0.10500
C576        C  0.81262800  0.65170219  0.92465916     0.08800
C577        C  0.87883540  0.58309806  0.87034740     0.09800
S578        S  0.87973240  0.55078836  0.97233223    -0.24900
H579        H  0.84387305  0.61252631  0.02044181     0.20100
S580        S  0.78383074  0.68800106  0.90409526    -0.30600
H581        H  0.82640418  0.63248003  0.85651429     0.10400
C582        C  0.85385266  0.54373558  0.83708436     0.03600
C583        C  0.88256719  0.53464258  0.80304457    -0.12900
C584        C  0.93628622  0.56642279  0.79903417    -0.08500
C585        C  0.96074010  0.60525421  0.83458917     0.07100
C586        C  0.93178496  0.61255915  0.86913073    -0.13600
S587        S  0.78540742  0.50353804  0.83913836    -0.30500
H588        H  0.86237932  0.50139255  0.78055978     0.11300
S589        S  0.02883154  0.64817697  0.83689402    -0.27600
H590        H  0.95050507  0.64239329  0.89536250     0.08500
H591        H  0.75203550  0.68070518  0.94212508     0.27000
H592        H  0.78026201  0.48021904  0.79556913     0.21800
H593        H  0.02870869  0.68610216  0.86722098     0.27100
H594        H  0.86724803  0.51788677  0.93338507     0.15900
C595        C  0.01523790  0.67418989  0.68415483    -0.11400
C596        C  0.04039346  0.66121433  0.65007273     0.15200
C597        C  0.04525315  0.61677824  0.65410964     0.02100
C598        C  0.02341980  0.58566559  0.69159006    -0.15700
C599        C  0.99670363  0.59707752  0.72681001    -0.10500
C600        C  0.99260703  0.64321484  0.72174175     0.08800
C601        C  0.05841047  0.69438056  0.61010041     0.09800
S602        S  0.07676248  0.59589771  0.61204990    -0.24900
H603        H  0.02723971  0.55124309  0.69315798     0.20100
S604        S  0.95373440  0.66285208  0.75604746    -0.30600
H605        H  0.01080127  0.70795174  0.67971223     0.10400
C606        C  0.02494270  0.68776764  0.57452346     0.03600
C607        C  0.04056253  0.72552030  0.54143630    -0.12900
C608        C  0.08901687  0.76978819  0.54330631    -0.08500
C609        C  0.12278054  0.77555791  0.57865671     0.07100
C610        C  0.10722177  0.73770526  0.61132863    -0.13600
S611        S  0.96189851  0.63190599  0.57210656    -0.30500
H612        H  0.01486309  0.72097729  0.51428882     0.11300
S613        S  0.18489979  0.83178539  0.58592382    -0.27600
H614        H  0.13249415  0.74320988  0.63920701     0.08500
H615        H  0.98402268  0.71645077  0.75012161     0.27000
H616        H  0.94537405  0.64585462  0.53345243     0.21800
H617        H  0.17041903  0.86753009  0.57174915     0.27100
H618        H  0.10468903  0.64292779  0.59011429     0.15900
C619        C  0.25918780  0.87530457  0.86610573    -0.11400
C620        C  0.30071705  0.92394390  0.87742925     0.15200
C621        C  0.29636123  0.95272982  0.91509434     0.02100
C622        C  0.25014047  0.93402256  0.93877086    -0.15700
C623        C  0.20802879  0.88635349  0.92642841    -0.10500
C624        C  0.21294111  0.85615418  0.89021776     0.08800
C625        C  0.34218467  0.94941046  0.84353618     0.09800
S626        S  0.34780980  0.01482607  0.93313326    -0.24900
H627        H  0.24688571  0.95693936  0.96700822     0.20100
S628        S  0.16096975  0.79435425  0.87156343    -0.30600
H629        H  0.26184364  0.85353239  0.83666280     0.10400
C630        C  0.38747117  0.94655370  0.84311475     0.03600
C631        C  0.42734803  0.97742086  0.81330599    -0.12900
C632        C  0.42345734  0.01148393  0.78280845    -0.08500
C633        C  0.37650691  0.01403219  0.78503723     0.07100
C634        C  0.33686194  0.98156854  0.81369132    -0.13600
S635        S  0.39498560  0.90489394  0.88154529    -0.30500
H636        H  0.46246063  0.97556108  0.81383238     0.11300
S637        S  0.36660669  0.06462579  0.76299310    -0.27600
H638        H  0.30231985  0.98464795  0.81603248     0.08500
H639        H  0.12140416  0.80505303  0.88372034     0.27000
H640        H  0.44453846  0.91671576  0.86754159     0.21800
H641        H  0.31389462  0.03357488  0.75513397     0.27100
H642        H  0.38643142  0.00226497  0.92246043     0.15900
C643        C  0.41365720  0.14023975  0.57346611    -0.11400
C644        C  0.40658138  0.14367844  0.62051026     0.15200
C645        C  0.37293017  0.16119530  0.63701999     0.02100
C646        C  0.34505316  0.17218973  0.60616563    -0.15700
C647        C  0.35003651  0.16605767  0.55920963    -0.10500
C648        C  0.38524141  0.15050652  0.54266399     0.08800
C649        C  0.42858406  0.12167140  0.65151004     0.09800
S650        S  0.36293794  0.16669554  0.69729078    -0.24900
H651        H  0.31845162  0.18473674  0.61856648     0.20100
S652        S  0.39340935  0.14011397  0.48298228    -0.30600
H653        H  0.43927237  0.12650256  0.56075624     0.10400
C654        C  0.40952971  0.06802646  0.65157388     0.03600
C655        C  0.42644156  0.04728997  0.68422603    -0.12900
C656        C  0.46042960  0.07794229  0.71958580    -0.08500
C657        C  0.47879778  0.13268743  0.71968590     0.07100
C658        C  0.46383075  0.15345154  0.68466298    -0.13600
S659        S  0.36020765  0.02474287  0.61243880    -0.30500
H660        H  0.41056495  0.00575751  0.68360322     0.11300
S661        S  0.51328262  0.17673522  0.76639646    -0.27600
H662        H  0.47665911  0.19455574  0.68475517     0.08500
H663        H  0.34586747  0.12561423  0.97023303     0.27000
H664        H  0.34240729  0.98007020  0.63813827     0.21800
H665        H  0.52571610  0.22336220  0.74556148     0.27100
H666        H  0.33183200  0.18975278  0.69405943     0.15900
C667        C  0.35761919  0.41086092  0.83896306    -0.11400
C668        C  0.38707912  0.38638895  0.84016524     0.15200
C669        C  0.42938406  0.40211985  0.81075041     0.02100
C670        C  0.44291839  0.44406794  0.78261608    -0.15700
C671        C  0.41677837  0.47316548  0.78445137    -0.10500
C672        C  0.37145413  0.45359372  0.81209395     0.08800
C673        C  0.37178700  0.34483108  0.87304736     0.09800
S674        S  0.46771708  0.37042251  0.80739609    -0.24900
H675        H  0.47436899  0.45352294  0.75939869     0.20100
S676        S  0.33236084  0.48439001  0.81781445    -0.30600
H677        H  0.32405250  0.39698513  0.86053423     0.10400
C678        C  0.37727516  0.35647178  0.92023908     0.03600
C679        C  0.35695550  0.31611488  0.95076714    -0.12900
C680        C  0.33144410  0.26439737  0.93510172    -0.08500
C681        C  0.32746880  0.25267576  0.88786941     0.07100
C682        C  0.34717974  0.29303300  0.85733423    -0.13600
S683        S  0.40982324  0.42272631  0.94173370    -0.30500
H684        H  0.35982527  0.32470664  0.98702347     0.11300
S685        S  0.29750196  0.18720486  0.86458799    -0.27600
H686        H  0.34278407  0.28408081  0.82112201     0.08500
H687        H  0.30614011  0.46086585  0.85780005     0.27000
H688        H  0.40488941  0.41183230  0.98819956     0.21800
H689        H  0.30926531  0.16561291  0.90097662     0.27100
H690        H  0.45942349  0.35352388  0.85223939     0.15900
C691        C  0.29630045  0.44966589  0.56934694    -0.11400
C692        C  0.27693109  0.43921126  0.61384162     0.15200
C693        C  0.22398481  0.40833805  0.62093654     0.02100
C694        C  0.19164366  0.38818902  0.58343246    -0.15700
C695        C  0.21115700  0.39720147  0.53892621    -0.10500
C696        C  0.26408435  0.42843094  0.53180144     0.08800
C697        C  0.31337097  0.45886869  0.65187727     0.09800
S698        S  0.19566463  0.39242562  0.67677722    -0.24900
H699        H  0.15093013  0.36441388  0.58892970     0.20100
S700        S  0.29049747  0.43462441  0.97416792    -0.30600
H701        H  0.33705452  0.47323975  0.56392987     0.10400
C702        C  0.34465396  0.43722435  0.65960500     0.03600
C703        C  0.38090852  0.45849025  0.69393157    -0.12900
C704        C  0.38871427  0.50257737  0.72120730    -0.08500
C705        C  0.35428864  0.52251418  0.71435155     0.07100
C706        C  0.31772482  0.50034184  0.67952457    -0.13600
S707        S  0.33903103  0.38260685  0.62526917    -0.30500
H708        H  0.40551923  0.44185475  0.69820849     0.11300
S709        S  0.35359808  0.57511116  0.74731173    -0.27600
H710        H  0.29278591  0.51613396  0.67291619     0.08500
H711        H  0.25370476  0.38710742  0.95468062     0.27000
H712        H  0.38464348  0.38513101  0.63942136     0.21800
H713        H  0.30299418  0.56239459  0.73787043     0.27100
H714        H  0.23604357  0.38906648  0.69659660     0.15900
C715        C  0.07707273  0.47521543  0.91452425    -0.11400
C716        C  0.07191821  0.46810024  0.86725125     0.15200
C717        C  0.08327989  0.43188251  0.84468598     0.02100
C718        C  0.09964726  0.40374534  0.86998781    -0.15700
C719        C  0.10323107  0.40962535  0.91755435    -0.10500
C720        C  0.09112041  0.44548835  0.93999951     0.08800
C721        C  0.04875118  0.49443221  0.84352476     0.09800
S722        S  0.07656239  0.41886000  0.78409581    -0.24900
H723        H  0.10875998  0.37630350  0.85252548     0.20100
S724        S  0.08389446  0.44678839  0.50196472    -0.30600
H725        H  0.06717503  0.50212518  0.93192875     0.10400
C726        C  0.99664046  0.47764751  0.84853001     0.03600
C727        C  0.97483460  0.50088839  0.82391423    -0.12900
C728        C  0.00296048  0.54099718  0.79281986    -0.08500
C729        C  0.05745200  0.56075853  0.79135790     0.07100
C730        C  0.07862020  0.53604902  0.81590140    -0.13600
S731        S  0.95668582  0.42369388  0.88389312    -0.30500
H732        H  0.93388681  0.48440012  0.82626417     0.11300
S733        S  0.10525962  0.61598303  0.76135539    -0.27600
H734        H  0.11928097  0.54955777  0.81365996     0.08500
H735        H  0.06857420  0.39442778  0.50868155     0.27000
H736        H  0.91035511  0.42334031  0.87676111     0.21800
H737        H  0.08329087  0.64801864  0.76489778     0.27100
H738        H  0.03521924  0.42785467  0.77857913     0.15900
C739        C  0.87748898  0.45999164  0.66546312    -0.11400
C740        C  0.89230249  0.42189940  0.66237105     0.15200
C741        C  0.92689517  0.42312243  0.69402574     0.02100
C742        C  0.94798355  0.46340166  0.72643597    -0.15700
C743        C  0.93475128  0.50366532  0.73075609    -0.10500
C744        C  0.89797484  0.50062640  0.69870693     0.08800
C745        C  0.87386498  0.38255664  0.62455078     0.09800
S746        S  0.94832691  0.37566178  0.69330910    -0.24900
H747        H  0.97779466  0.46353988  0.74609259     0.20100
S748        S  0.87866463  0.54953697  0.69643342    -0.30600
H749        H  0.85109539  0.45882201  0.64043752     0.10400
C750        C  0.82511408  0.33855551  0.62599584     0.03600
C751        C  0.81236961  0.29796048  0.59375713    -0.12900
C752        C  0.84746540  0.30038728  0.56017906    -0.08500
C753        C  0.89516283  0.34583225  0.55709823     0.07100
C754        C  0.90802497  0.38623388  0.58951949    -0.13600
S755        S  0.78067672  0.33244721  0.67093457    -0.30500
H756        H  0.77572499  0.26309978  0.59583731     0.11300
S757        S  0.94113234  0.35425752  0.51303833    -0.27600
H758        H  0.94547191  0.42022829  0.58825245     0.08500
H759        H  0.83632043  0.52179635  0.66779128     0.27000
H760        H  0.74098844  0.28360224  0.65671707     0.21800
H761        H  0.91201409  0.32330290  0.98193221     0.27100
H762        H  0.90158532  0.33333733  0.67943723     0.15900
C763        C  0.54975219  0.09966030  0.86791938    -0.11400
C764        C  0.60052894  0.12359771  0.85296782     0.15200
C765        C  0.60970502  0.13260781  0.80613267     0.02100
C766        C  0.56889813  0.11078164  0.77561989    -0.15700
C767        C  0.51713187  0.08173663  0.78956584    -0.10500
C768        C  0.50935978  0.08574459  0.83757599     0.08800
C769        C  0.64310035  0.13957375  0.88623965     0.09800
S770        S  0.67242317  0.17360771  0.78284195    -0.24900
H771        H  0.57922256  0.12134118  0.74114480     0.20100
S772        S  0.45409796  0.08816794  0.86068738    -0.30600
H773        H  0.54164434  0.09458291  0.90390596     0.10400
C774        C  0.64729051  0.16867643  0.92687691     0.03600
C775        C  0.68862445  0.18258862  0.95617527    -0.12900
C776        C  0.72865499  0.17222799  0.94452973    -0.08500
C777        C  0.72541925  0.14548260  0.90253018     0.07100
C778        C  0.68157293  0.12673683  0.87587811    -0.13600
S779        S  0.60300946  0.19231515  0.94034941    -0.30500
H780        H  0.69027301  0.20294168  0.98797486     0.11300
S781        S  0.77751723  0.13867190  0.87780388    -0.27600
H782        H  0.67899094  0.10450679  0.84492582     0.08500
H783        H  0.47140976  0.10336764  0.90560978     0.27000
H784        H  0.61931770  0.20972038  0.98518876     0.21800
H785        H  0.81583570  0.18724912  0.89419556     0.27100
H786        H  0.69080331  0.20725265  0.82126637     0.15900
loop_ 
_geom_bond_atom_site_label_1 
_geom_bond_atom_site_label_2 
_geom_bond_distance 
_geom_bond_site_symmetry_2 
_ccdc_geom_bond_type 
C1            C2   1.404   1_554  A
C1            C6   1.407       .  A
C1          C359   1.485       .  S
C2          C396   1.409       .  A
C2            H7   1.083       .  S
C3            C4   1.410       .  A
C3          C395   1.410       .  A
C3          C383   1.509       .  S
C4            C5   1.412       .  A
C4            H8   1.081       .  S
C5          C399   1.404       .  A
C5          C489   1.486       .  S
C6          C398   1.405       .  A
C6            H9   1.084       .  S
C10          C15   1.408       .  A
C10         C404   1.404       .  A
C10         C326   1.477       .  S
C11          C12   1.399   1_556  A
C11         C403   1.406       .  A
C11          H16   1.084       .  S
C12          C13   1.398   1_554  A
C12         C302   1.475       .  S
C13         C407   1.402       .  A
C13          H17   1.085   1_556  S
C14          C15   1.403       .  A
C14         C406   1.401       .  A
C14          C72   1.469       .  S
C15          H18   1.084       .  S
C19          C20   1.409       .  A
C19         C417   1.402   1_554  A
C19         C254   1.479       .  S
C20          C21   1.404       .  A
C20          H25   1.084       .  S
C21         C415   1.405   1_554  A
C21          C71   1.476       .  S
C22          C23   1.400       .  A
C22         C414   1.407       .  A
C22          H26   1.084       .  S
C23          C24   1.398       .  A
C23         C287   1.475       .  S
C24         C412   1.402       .  A
C24          H27   1.084       .  S
C28          C29   1.405       .  A
C28         C426   1.403   1_554  A
C28         C215   1.483       .  S
C29         C423   1.406   1_554  A
C29          H34   1.084       .  S
C30          C31   1.406       .  A
C30         C422   1.408       .  A
C30          C64   1.484       .  S
C31          C32   1.409       .  A
C31          H35   1.084       .  S
C32          C33   1.401       .  A
C32         C230   1.479       .  S
C33         C421   1.402       .  A
C33          H36   1.084       .  S
C37          C38   1.401       .  A
C37         C435   1.405       .  A
C37         C182   1.486       .  S
C38          C39   1.403       .  A
C38          H43   1.084       .  S
C39         C433   1.401       .  A
C39         C453   1.474       .  S
C40          C41   1.407       .  A
C40         C432   1.400       .  A
C40          H44   1.083       .  S
C41          C42   1.408       .  A
C41         C158   1.484       .  S
C42         C430   1.401       .  A
C42          H45   1.084       .  S
C46          C47   1.399       .  A
C46         C444   1.402   1_554  A
C46         C119   1.478       .  S
C47         C441   1.401   1_554  A
C47          H52   1.084       .  S
C48          C49   1.399       .  A
C48         C440   1.402       .  A
C48          C98   1.468       .  S
C49          C50   1.409       .  A
C49          H53   1.083       .  S
C50          C51   1.409       .  A
C50         C134   1.488       .  S
C51         C439   1.403       .  A
C51          H54   1.084       .  S
O55         Mg57   2.133       .  S
O55        Mg456   2.153       .  S
O55          C90   1.234       .  S
C56          H95   1.081       .  S
C56          O69   1.235       .  S
C56          O93   1.271       .  A
Mg57        O479   2.151       .  S
Mg57         O97   2.246   1_545  S
Mg57         O68   2.303   1_545  S
Mg57        O494   2.294       .  S
O58         Mg83   2.154       .  S
O58        Mg493   2.169       .  S
O58          C79   1.234       .  S
O59          C90   1.269   1_455  A
O59         Mg83   2.297       .  S
C60         C432   1.476       .  S
C60          O62   1.274       .  A
C60          O74   1.271       .  A
O61          C89   1.269       .  A
O61         Mg63   2.298       .  S
O62         Mg94   2.284       .  S
Mg63         O69   2.165   1_655  S
Mg63        O448   2.157   1_554  S
Mg63         O77   2.285       .  S
Mg63        O458   2.310   1_654  S
C64         O102   1.273       .  A
C64          O70   1.278       .  A
O65          C72   1.275       .  A
O65        Mg456   2.316   1_455  S
H66          C79   1.081       .  S
C67          H92   1.081       .  S
C67          O81   1.236       .  S
C67          O82   1.270       .  A
O68          C91   1.271       .  A
O69        Mg476   2.152   1_554  S
O70        Mg493   2.341   1_565  S
C71          O84   1.271       .  A
C71          O76   1.273   1_554  A
C72          O99   1.270       .  A
Mg73         O80   2.162       .  S
Mg73        O474   2.154       .  S
Mg73         O75   2.301   1_655  S
Mg73        O102   2.279   1_655  S
Mg73        O467   2.284       .  S
O74        Mg466   2.271   1_554  S
O75          C79   1.269   1_565  A
O76        Mg476   2.279       .  S
O77          C96   1.274       .  A
O78          C98   1.276       .  A
O78        Mg487   2.326       .  S
O80        Mg487   2.168       .  S
O80          C91   1.236       .  S
O81        Mg100   2.145   1_665  S
O81        Mg466   2.152   1_554  S
O82         Mg94   2.296       .  S
Mg83        O462   2.157       .  S
Mg83         O99   2.256       .  S
Mg83        O469   2.278       .  S
O84        Mg100   2.269       .  S
H85          C90   1.081       .  S
O86         Mg94   2.157   1_545  S
O86        Mg450   2.155   1_554  S
O86          C89   1.235       .  S
H87          C89   1.081       .  S
H88          C91   1.081       .  S
O93        Mg100   2.306       .  S
Mg94        O473   2.164   1_554  S
Mg94        O471   2.315   1_554  S
C96         C398   1.487       .  S
C96         O101   1.275   1_554  A
O97          C98   1.268       .  A
Mg100       O451   2.165   1_554  S
Mg100       O463   2.322   1_544  S
O101       Mg450   2.302       .  S
C103        C191   1.577       .  S
C103        C206   1.579   1_655  S
C103        C335   1.581   1_655  S
C103        C350   1.599       .  S
C104        C110   1.601       .  S
C104        C239   1.578       .  S
C104        C263   1.565       .  S
C104        C374   1.603       .  S
C105        C143   1.578       .  S
C105        C167   1.582       .  S
C105        C278   1.571       .  S
C105        C311   1.569       .  S
C106        C107   1.399       .  A
C106        C111   1.413       .  A
C106        H116   1.083       .  S
C107        C108   1.401   1_565  A
C107        C112   1.485       .  S
C108        C109   1.390       .  A
C108        S113   1.807       .  S
C109        C110   1.423       .  A
C109        H114   1.080       .  S
C110        C111   1.444   1_545  A
C111        S115   1.809       .  S
C112        C117   1.410       .  A
C112        C121   1.405       .  A
S113        H129   1.406       .  S
S115        H126   1.408       .  S
C117        C118   1.405       .  A
C117        S122   1.806       .  S
C118        C119   1.405       .  A
C118        H123   1.083       .  S
C119        C120   1.411       .  A
C120        C121   1.398       .  A
C120        S517   1.805   1_554  S
C121        H125   1.084       .  S
S122        H127   1.407       .  S
S124        C513   1.805       .  S
S124        H128   1.406       .  S
C130        C131   1.405       .  A
C130        C135   1.395       .  A
C130        H140   1.085       .  S
C131        C132   1.412       .  A
C131        C136   1.483       .  S
C132        C133   1.403       .  A
C132        S137   1.806       .  S
C133        C134   1.410       .  A
C133        H138   1.084       .  S
C134        C135   1.415       .  A
C135        S139   1.806       .  S
C136        C141   1.402       .  A
C136        C145   1.390       .  A
S137        H153   1.403       .  S
S139        H543   1.407       .  S
C141        C142   1.408       .  A
C141        S146   1.805       .  S
C142        C143   1.424       .  A
C142        H147   1.080       .  S
C143        C144   1.445       .  A
C144        C145   1.395       .  A
C144        S148   1.810       .  S
C145        H149   1.085       .  S
S146        H151   1.407       .  S
S148        H152   1.408       .  S
H150        S532   1.407       .  S
C154        C155   1.406       .  A
C154        C159   1.393       .  A
C154        H164   1.085       .  S
C155        C156   1.414       .  A
C155        C160   1.487       .  S
C156        C157   1.403       .  A
C156        S161   1.804       .  S
C157        C158   1.408       .  A
C157        H162   1.084       .  S
C158        C159   1.414       .  A
C159        S163   1.807       .  S
C160        C165   1.404       .  A
C160        C169   1.394       .  A
S161        H177   1.405       .  S
S163        H174   1.407       .  S
C165        C166   1.405       .  A
C165        S170   1.806       .  S
C166        C167   1.423       .  A
C166        H171   1.080       .  S
C167        C168   1.443       .  A
C168        C169   1.396       .  A
C168        S172   1.816       .  S
C169        H173   1.084       .  S
S170        H175   1.407       .  S
S172        H176   1.407       .  S
C178        C179   1.402       .  A
C178        C183   1.400       .  A
C178        H188   1.084       .  S
C179        C180   1.414       .  A
C179        C184   1.485       .  S
C180        C181   1.403       .  A
C180        S185   1.803       .  S
C181        C182   1.404       .  A
C181        H186   1.084       .  S
C182        C183   1.417       .  A
C183        S187   1.805       .  S
C184        C189   1.404       .  A
C184        C193   1.392       .  A
S185        H201   1.406       .  S
S187        H198   1.406       .  S
C189        C190   1.408       .  A
C189        S194   1.805       .  S
C190        C191   1.420       .  A
C190        H195   1.076       .  S
C191        C192   1.441       .  A
C192        C193   1.401       .  A
C192        S196   1.809   1_655  S
C193        H197   1.083       .  S
S194        H199   1.407       .  S
S196        H200   1.407       .  S
C202        C203   1.390       .  A
C202        C207   1.403   1_455  A
C202        H212   1.084       .  S
C203        C204   1.402       .  A
C203        C208   1.481       .  S
C204        C205   1.400       .  A
C204        S209   1.803       .  S
C205        C206   1.425       .  A
C205        H210   1.083       .  S
C206        C207   1.448   1_455  A
C207        S211   1.811       .  S
C208        C213   1.411       .  A
C208        C217   1.400       .  A
S209        H225   1.405       .  S
S211        H222   1.408       .  S
C213        C214   1.405       .  A
C213        S218   1.807   1_455  S
C214        C215   1.404       .  A
C214        H219   1.083       .  S
C215        C216   1.416       .  A
C216        C217   1.399       .  A
C216        S220   1.805       .  S
C217        H221   1.084       .  S
S218        H223   1.407       .  S
S220        H224   1.407       .  S
C226        C227   1.404       .  A
C226        C231   1.404       .  A
C226        H236   1.084       .  S
C227        C228   1.413       .  A
C227        C232   1.483       .  S
C228        C229   1.397       .  A
C228        S233   1.801   1_565  S
C229        C230   1.401       .  A
C229        H234   1.084       .  S
C230        C231   1.416       .  A
C231        S235   1.806       .  S
C232        C237   1.403       .  A
C232        C241   1.390       .  A
S233        H249   1.404       .  S
S235        H246   1.405       .  S
C237        C238   1.409       .  A
C237        S242   1.803       .  S
C238        C239   1.424   1_565  A
C238        H243   1.083       .  S
C239        C240   1.446       .  A
C240        C241   1.398   1_545  A
C240        S244   1.814       .  S
C241        H245   1.084       .  S
S242        H247   1.407       .  S
S244        H248   1.407       .  S
C250        C251   1.403       .  A
C250        C255   1.400       .  A
C250        H260   1.084       .  S
C251        C252   1.409       .  A
C251        C256   1.480       .  S
C252        C253   1.400       .  A
C252        S257   1.806       .  S
C253        C254   1.403       .  A
C253        H258   1.083       .  S
C254        C255   1.416       .  A
C255        S259   1.805   1_554  S
C256        C261   1.400       .  A
C256        C265   1.401       .  A
S257        H273   1.406       .  S
S259        H663   1.406       .  S
C261        C262   1.391       .  A
C261        S266   1.810       .  S
C262        C263   1.422       .  A
C262        H267   1.079       .  S
C263        C264   1.433       .  A
C264        C265   1.412       .  A
C264        S268   1.806       .  S
C265        H269   1.082       .  S
S266        H271   1.407   1_545  S
S268        H272   1.407       .  S
H270        S652   1.407       .  S
C274        C275   1.394       .  A
C274        C279   1.399       .  A
C274        H284   1.083       .  S
C275        C276   1.408       .  A
C275        C280   1.482       .  S
C276        C277   1.403       .  A
C276        S281   1.805       .  S
C277        C278   1.420       .  A
C277        H282   1.079       .  S
C278        C279   1.435       .  A
C279        S283   1.805       .  S
C280        C285   1.412       .  A
C280        C289   1.402       .  A
S281        H297   1.405       .  S
S283        H294   1.407       .  S
C285        C286   1.401       .  A
C285        S290   1.806       .  S
C286        C287   1.400       .  A
C286        H291   1.083       .  S
C287        C288   1.413       .  A
C288        C289   1.401       .  A
C288        S292   1.804       .  S
C289        H293   1.084       .  S
S290        H295   1.407       .  S
S292        H296   1.406       .  S
C298        C299   1.405       .  A
C298        C303   1.400       .  A
C298        H308   1.084       .  S
C299        C300   1.411       .  A
C299        C304   1.479       .  S
C300        C301   1.399       .  A
C300        S305   1.805       .  S
C301        C302   1.404       .  A
C301        H306   1.084       .  S
C302        C303   1.410       .  A
C303        S700   1.804   1_554  S
C304        C309   1.398       .  A
C304        C313   1.399       .  A
S305        H321   1.406       .  S
S307        C696   1.804       .  S
S307        H318   1.405       .  S
C309        C310   1.393       .  A
C309        S314   1.809       .  S
C310        C311   1.425       .  A
C310        H315   1.081       .  S
C311        C312   1.439       .  A
C312        C313   1.411       .  A
C312        S316   1.808       .  S
C313        H317   1.083       .  S
S314        H319   1.407       .  S
S316        H320   1.407       .  S
C322        C323   1.402       .  A
C322        C327   1.396       .  A
C322        H332   1.084       .  S
C323        C324   1.413       .  A
C323        C328   1.478       .  S
C324        C325   1.400       .  A
C324        S329   1.804       .  S
C325        C326   1.403       .  A
C325        H330   1.084       .  S
C326        C327   1.414       .  A
C327        S724   1.805       .  S
C328        C333   1.399   1_455  A
C328        C337   1.398       .  A
S329        H345   1.406       .  S
S331        C720   1.805   1_554  S
S331        H342   1.407       .  S
C333        C334   1.390       .  A
C333        S338   1.812       .  S
C334        C335   1.427   1_655  A
C334        H339   1.081       .  S
C335        C336   1.441       .  A
C336        C337   1.407       .  A
C336        S340   1.807       .  S
C337        H341   1.084       .  S
S338        H343   1.406       .  S
S340        H344   1.397       .  S
C346        C347   1.400       .  A
C346        C351   1.414       .  A
C346        H356   1.082       .  S
C347        C348   1.398       .  A
C347        C352   1.485       .  S
C348        C349   1.391       .  A
C348        S353   1.808       .  S
C349        C350   1.429       .  A
C349        H354   1.075       .  S
C350        C351   1.438       .  A
C351        S355   1.809       .  S
C352        C357   1.408       .  A
C352        C361   1.405       .  A
S353        H369   1.406       .  S
S355        H366   1.406       .  S
C357        C358   1.404       .  A
C357        S362   1.806       .  S
C358        C359   1.406       .  A
C358        H363   1.083       .  S
C359        C360   1.413       .  A
C360        C361   1.402       .  A
C360        S364   1.804       .  S
C361        H365   1.084       .  S
S362        H367   1.407       .  S
S364        H761   1.406   1_554  S
H368        S757   1.406       .  S
C370        C371   1.398       .  A
C370        C375   1.405       .  A
C370        H380   1.081       .  S
C371        C372   1.409       .  A
C371        C376   1.500       .  S
C372        C373   1.402       .  A
C372        S377   1.807       .  S
C373        C374   1.424       .  A
C373        H378   1.060       .  S
C374        C375   1.438       .  A
C375        S379   1.810       .  S
C376        C381   1.415       .  A
C376        C385   1.405       .  A
S377        H393   1.407       .  S
S379        H390   1.407       .  S
C381        C382   1.405       .  A
C381        S386   1.810       .  S
C382        C383   1.411       .  A
C382        H387   1.081       .  S
C383        C384   1.424       .  A
C384        C385   1.402       .  A
C384        S388   1.804       .  S
C385        H389   1.084       .  S
S386        H391   1.407       .  S
S388        H392   1.407       .  S
C394        C395   1.401       .  A
C394        C399   1.404       .  A
C394        C752   1.480       .  S
C395        H400   1.082       .  S
C396        C397   1.408       .  A
C396        C776   1.503       .  S
C397        C398   1.409   1_556  A
C397        H401   1.082       .  S
C399        H402   1.084       .  S
C403        C408   1.408       .  A
C403        C719   1.480       .  S
C404        C405   1.397       .  A
C404        H409   1.084       .  S
C405        C406   1.398       .  A
C405        C695   1.472       .  S
C406        H410   1.085       .  S
C407        C408   1.401       .  A
C407        C465   1.467       .  S
C408        H411   1.084       .  S
C412        C413   1.407       .  A
C412        C647   1.475       .  S
C413        C414   1.403       .  A
C413        H418   1.084       .  S
C414        C464   1.479       .  S
C415        C416   1.398       .  A
C415        H419   1.084       .  S
C416        C417   1.398       .  A
C416        C680   1.473       .  S
C417        H420   1.084       .  S
C421        C422   1.407       .  A
C421        C608   1.485       .  S
C422        H427   1.084       .  S
C423        C424   1.404       .  A
C423        C457   1.477       .  S
C424        C425   1.407       .  A
C424        H428   1.084       .  S
C425        C426   1.402       .  A
C425        C623   1.478       .  S
C426        H429   1.084       .  S
C430        C431   1.402       .  A
C430        C575   1.483   1_554  S
C431        C432   1.405       .  A
C431        H436   1.084   1_554  S
C433        C434   1.408       .  A
C433        H437   1.083       .  S
C434        C435   1.412       .  A
C434        C551   1.492       .  S
C435        H438   1.084       .  S
C439        C440   1.401       .  A
C439        C512   1.482       .  S
C440        H445   1.084       .  S
C441        C442   1.397       .  A
C441        C491   1.462       .  S
C442        C443   1.406       .  A
C442        H446   1.083       .  S
C443        C444   1.408       .  A
C443        C527   1.484       .  S
C444        H447   1.084       .  S
O448       Mg450   2.134       .  S
O448        C483   1.235       .  S
C449        H488   1.081       .  S
C449        O462   1.236       .  S
C449        O486   1.271       .  A
Mg450       O490   2.240   1_545  S
Mg450       O461   2.303   1_545  S
O451       Mg476   2.143       .  S
O451        C472   1.234       .  S
O452        C483   1.269   1_455  A
O452       Mg476   2.300       .  S
C453        O455   1.272       .  A
C453        O467   1.273       .  A
O454        C482   1.269       .  A
O454       Mg456   2.299       .  S
O455       Mg487   2.269       .  S
Mg456       O462   2.169   1_655  S
Mg456       O470   2.291       .  S
C457        O495   1.271       .  A
C457        O463   1.276       .  A
O458        C465   1.273       .  A
H459        C472   1.081       .  S
C460        H485   1.081       .  S
C460        O474   1.236       .  S
C460        O475   1.271       .  A
O461        C484   1.270       .  A
C464        O477   1.273       .  A
C464        O469   1.272       .  A
C465        O492   1.269       .  A
Mg466       O473   2.153       .  S
Mg466       O468   2.298   1_655  S
Mg466       O495   2.268   1_655  S
O468        C472   1.268   1_565  A
O470        C489   1.275       .  A
O471        C491   1.276       .  A
O473        C484   1.235       .  S
O474       Mg493   2.153   1_665  S
O475       Mg487   2.301       .  S
Mg476       O492   2.248       .  S
O477       Mg493   2.280       .  S
H478        C483   1.081       .  S
O479       Mg487   2.153   1_545  S
O479        C482   1.235       .  S
H480        C482   1.081       .  S
H481        C484   1.081       .  S
O486       Mg493   2.307       .  S
C489        O494   1.274       .  A
O490        C491   1.268       .  A
C496        C584   1.578       .  S
C496        C599   1.573       .  S
C496        C728   1.580   1_655  S
C496        C743   1.596       .  S
C497        C503   1.602       .  S
C497        C632   1.579       .  S
C497        C656   1.563       .  S
C497        C767   1.600       .  S
C498        C536   1.572       .  S
C498        C560   1.586       .  S
C498        C671   1.570       .  S
C498        C704   1.565       .  S
C499        C500   1.399       .  A
C499        C504   1.415       .  A
C499        H509   1.083       .  S
C500        C501   1.400   1_565  A
C500        C505   1.485       .  S
C501        C502   1.390       .  A
C501        S506   1.807       .  S
C502        C503   1.421       .  A
C502        H507   1.079       .  S
C503        C504   1.445   1_545  A
C504        S508   1.810       .  S
C505        C510   1.408       .  A
C505        C514   1.404       .  A
S506        H522   1.406       .  S
S508        H519   1.408       .  S
C510        C511   1.406       .  A
C510        S515   1.805       .  S
C511        C512   1.406       .  A
C511        H516   1.083       .  S
C512        C513   1.413       .  A
C513        C514   1.399       .  A
C514        H518   1.084       .  S
S515        H520   1.407       .  S
S517        H521   1.407       .  S
C523        C524   1.404       .  A
C523        C528   1.393       .  A
C523        H533   1.085       .  S
C524        C525   1.410       .  A
C524        C529   1.478       .  S
C525        C526   1.401       .  A
C525        S530   1.805       .  S
C526        C527   1.409       .  A
C526        H531   1.084       .  S
C527        C528   1.416       .  A
C528        S532   1.806       .  S
C529        C534   1.400       .  A
C529        C538   1.390       .  A
S530        H546   1.404       .  S
C534        C535   1.404       .  A
C534        S539   1.805       .  S
C535        C536   1.423       .  A
C535        H540   1.079       .  S
C536        C537   1.444       .  A
C537        C538   1.394       .  A
C537        S541   1.811       .  S
C538        H542   1.085       .  S
S539        H544   1.407       .  S
S541        H545   1.408       .  S
C547        C548   1.406       .  A
C547        C552   1.397       .  A
C547        H557   1.085       .  S
C548        C549   1.414       .  A
C548        C553   1.491       .  S
C549        C550   1.404       .  A
C549        S554   1.804       .  S
C550        C551   1.408       .  A
C550        H555   1.084       .  S
C551        C552   1.417       .  A
C552        S556   1.807       .  S
C553        C558   1.406       .  A
C553        C562   1.392       .  A
S554        H570   1.405       .  S
S556        H567   1.407       .  S
C558        C559   1.410       .  A
C558        S563   1.805       .  S
C559        C560   1.423       .  A
C559        H564   1.080       .  S
C560        C561   1.445       .  A
C561        C562   1.396       .  A
C561        S565   1.814       .  S
C562        H566   1.084       .  S
S563        H568   1.407       .  S
S565        H569   1.408       .  S
C571        C572   1.401       .  A
C571        C576   1.400       .  A
C571        H581   1.084       .  S
C572        C573   1.414       .  A
C572        C577   1.484       .  S
C573        C574   1.403       .  A
C573        S578   1.803       .  S
C574        C575   1.404       .  A
C574        H579   1.084   1_556  S
C575        C576   1.415       .  A
C576        S580   1.804       .  S
C577        C582   1.403       .  A
C577        C586   1.391       .  A
S578        H594   1.406       .  S
S580        H591   1.407       .  S
C582        C583   1.408       .  A
C582        S587   1.804       .  S
C583        C584   1.421       .  A
C583        H588   1.076       .  S
C584        C585   1.439       .  A
C585        C586   1.400       .  A
C585        S589   1.806   1_655  S
C586        H590   1.083       .  S
S587        H592   1.407       .  S
S589        H593   1.407       .  S
C595        C596   1.393       .  A
C595        C600   1.403   1_455  A
C595        H605   1.084       .  S
C596        C597   1.402       .  A
C596        C601   1.479       .  S
C597        C598   1.399       .  A
C597        S602   1.806       .  S
C598        C599   1.424   1_455  A
C598        H603   1.083       .  S
C599        C600   1.444       .  A
C600        S604   1.810       .  S
C601        C606   1.410       .  A
C601        C610   1.399       .  A
S602        H618   1.403       .  S
S604        H615   1.408       .  S
C606        C607   1.405       .  A
C606        S611   1.807   1_455  S
C607        C608   1.405       .  A
C607        H612   1.083       .  S
C608        C609   1.417       .  A
C609        C610   1.399       .  A
C609        S613   1.804       .  S
C610        H614   1.084       .  S
S611        H616   1.407       .  S
S613        H617   1.406       .  S
C619        C620   1.403       .  A
C619        C624   1.403       .  A
C619        H629   1.084       .  S
C620        C621   1.413       .  A
C620        C625   1.483       .  S
C621        C622   1.397       .  A
C621        S626   1.799   1_565  S
C622        C623   1.400       .  A
C622        H627   1.084       .  S
C623        C624   1.414       .  A
C624        S628   1.805       .  S
C625        C630   1.402       .  A
C625        C634   1.389       .  A
S626        H642   1.405       .  S
S628        H639   1.406       .  S
C630        C631   1.409       .  A
C630        S635   1.803       .  S
C631        C632   1.426   1_565  A
C631        H636   1.082       .  S
C632        C633   1.447       .  A
C633        C634   1.398   1_545  A
C633        S637   1.810       .  S
C634        H638   1.085       .  S
S635        H640   1.407       .  S
S637        H641   1.408       .  S
C643        C644   1.404       .  A
C643        C648   1.399       .  A
C643        H653   1.084       .  S
C644        C645   1.411       .  A
C644        C649   1.481       .  S
C645        C646   1.400       .  A
C645        S650   1.807       .  S
C646        C647   1.401       .  A
C646        H651   1.083       .  S
C647        C648   1.413       .  A
C648        S652   1.804       .  S
C649        C654   1.401       .  A
C649        C658   1.401       .  A
S650        H666   1.407       .  S
C654        C655   1.392       .  A
C654        S659   1.809       .  S
C655        C656   1.421       .  A
C655        H660   1.080       .  S
C656        C657   1.435       .  A
C657        C658   1.410       .  A
C657        S661   1.808       .  S
C658        H662   1.082       .  S
S659        H664   1.407   1_545  S
S661        H665   1.406       .  S
C667        C668   1.392       .  A
C667        C672   1.398       .  A
C667        H677   1.083       .  S
C668        C669   1.408       .  A
C668        C673   1.479       .  S
C669        C670   1.404       .  A
C669        S674   1.804       .  S
C670        C671   1.419       .  A
C670        H675   1.079       .  S
C671        C672   1.437       .  A
C672        S676   1.805       .  S
C673        C678   1.412       .  A
C673        C682   1.401       .  A
S674        H690   1.405       .  S
S676        H687   1.407       .  S
C678        C679   1.400       .  A
C678        S683   1.806       .  S
C679        C680   1.399       .  A
C679        H684   1.083       .  S
C680        C681   1.413       .  A
C681        C682   1.400       .  A
C681        S685   1.804       .  S
C682        H686   1.084       .  S
S683        H688   1.407       .  S
S685        H689   1.406       .  S
C691        C692   1.404       .  A
C691        C696   1.398       .  A
C691        H701   1.084       .  S
C692        C693   1.410       .  A
C692        C697   1.475       .  S
C693        C694   1.397       .  A
C693        S698   1.804       .  S
C694        C695   1.404       .  A
C694        H699   1.084       .  S
C695        C696   1.410       .  A
C697        C702   1.398       .  A
C697        C706   1.398       .  A
S698        H714   1.406       .  S
S700        H711   1.406       .  S
C702        C703   1.391       .  A
C702        S707   1.809       .  S
C703        C704   1.424       .  A
C703        H708   1.081       .  S
C704        C705   1.439       .  A
C705        C706   1.409       .  A
C705        S709   1.809       .  S
C706        H710   1.083       .  S
S707        H712   1.407       .  S
S709        H713   1.407       .  S
C715        C716   1.401       .  A
C715        C720   1.396       .  A
C715        H725   1.084       .  S
C716        C717   1.412       .  A
C716        C721   1.476       .  S
C717        C718   1.400       .  A
C717        S722   1.805       .  S
C718        C719   1.405       .  A
C718        H723   1.084       .  S
C719        C720   1.415       .  A
C721        C726   1.397   1_455  A
C721        C730   1.397       .  A
S722        H738   1.405       .  S
S724        H735   1.407       .  S
C726        C727   1.390       .  A
C726        S731   1.811       .  S
C727        C728   1.427   1_655  A
C727        H732   1.080       .  S
C728        C729   1.444       .  A
C729        C730   1.408       .  A
C729        S733   1.811       .  S
C730        H734   1.084       .  S
S731        H736   1.406       .  S
S733        H737   1.394       .  S
C739        C740   1.399       .  A
C739        C744   1.412       .  A
C739        H749   1.083       .  S
C740        C741   1.399       .  A
C740        C745   1.483       .  S
C741        C742   1.390       .  A
C741        S746   1.808       .  S
C742        C743   1.429       .  A
C742        H747   1.076       .  S
C743        C744   1.437       .  A
C744        S748   1.807       .  S
C745        C750   1.408       .  A
C745        C754   1.406       .  A
S746        H762   1.406       .  S
S748        H759   1.407       .  S
C750        C751   1.403       .  A
C750        S755   1.806       .  S
C751        C752   1.405       .  A
C751        H756   1.083       .  S
C752        C753   1.411       .  A
C753        C754   1.402       .  A
C753        S757   1.804       .  S
C754        H758   1.084       .  S
S755        H760   1.407       .  S
C763        C764   1.399       .  A
C763        C768   1.405       .  A
C763        H773   1.082       .  S
C764        C765   1.411       .  A
C764        C769   1.500       .  S
C765        C766   1.400       .  A
C765        S770   1.806       .  S
C766        C767   1.420       .  A
C766        H771   1.068       .  S
C767        C768   1.437       .  A
C768        S772   1.810       .  S
C769        C774   1.417       .  A
C769        C778   1.404       .  A
S770        H786   1.407       .  S
S772        H783   1.407       .  S
C774        C775   1.406       .  A
C774        S779   1.809       .  S
C775        C776   1.409       .  A
C775        H780   1.081       .  S
C776        C777   1.420       .  A
C777        C778   1.399       .  A
C777        S781   1.804       .  S
C778        H782   1.084       .  S
S779        H784   1.407       .  S
S781        H785   1.407       .  S
