geometry optimzed in LAMMPS
_audit_creation_date              2020-11-30 
_audit_creation_method            'lammps2cif' 
_symmetry_space_group_name_H-M    'P1' 
_symmetry_Int_Tables_number       1 
_symmetry_cell_setting            triclinic 
loop_ 
_symmetry_equiv_pos_as_xyz 
  x,y,z 
_cell_length_a                    25.77203862585214 
_cell_length_b                    25.69612038719244 
_cell_length_c                    41.12577701068307 
_cell_angle_alpha                 90.32481796153827 
_cell_angle_beta                  89.83742776985696 
_cell_angle_gamma                 120.4953494798202 
loop_ 
_atom_site_label 
_atom_site_type_symbol 
_atom_site_fract_x 
_atom_site_fract_y 
_atom_site_fract_z 
_atom_site_charge 
C1          C  0.28647064  0.14210081  0.37994717     0.00070
C2          C  0.32980026  0.16512372  0.40350341     0.00070
C3          C  0.31295244  0.15461048  0.13435855     0.00070
C4          C  0.35468293  0.17589552  0.10982816     0.00070
O5          O  0.02505028  0.84762485  0.28598990    -0.74920
O6          O  0.12268260  0.94662477  0.21624649    -0.74950
O7          O  0.01811867  0.84105262  0.22008841    -0.75000
O8          O  0.12966976  0.95324195  0.28165598    -0.75050
O9          O  0.17911879  0.90274407  0.28265759    -0.74980
O10         O  0.06910076  0.79212100  0.21862970    -0.74960
O11         O  0.17539202  0.89956332  0.21650836    -0.74940
O12         O  0.07310900  0.79588486  0.28497508    -0.75000
Ni13       Ni  0.07206780  0.89873651  0.25102606     1.25410
Ni14       Ni  0.12599524  0.84566602  0.25065758     1.25360
C15         C  0.03290473  0.80568017  0.29712431     0.87260
C16         C  0.16542924  0.94006926  0.20507685     0.87190
C17         C  0.02561928  0.79878252  0.20889141     0.87220
C18         C  0.17252309  0.94655698  0.29225636     0.87390
C19         C  0.79921013  0.63497797  0.10381349     0.00070
C20         C  0.82384895  0.67797114  0.12755791     0.00070
C21         C  0.82021433  0.65838900  0.36746135     0.00070
C22         C  0.80573268  0.63284602  0.39805818     0.00070
C23         C  0.82466140  0.14625358  0.12764754     0.00070
C24         C  0.80145747  0.16873457  0.10572416     0.00070
C25         C  0.81727673  0.14966377  0.37242906     0.00070
C26         C  0.80147753  0.17369685  0.39761794     0.00070
O27         O  0.06455901  0.26520349  0.28313102    -0.74920
O28         O  0.18052317  0.27504432  0.22015960    -0.74950
O29         O  0.07192408  0.27088353  0.21695626    -0.75000
O30         O  0.17260107  0.26905256  0.28612435    -0.75050
O31         O  0.12342805  0.16852391  0.28261250    -0.74980
O32         O  0.02491551  0.17035799  0.21459567    -0.74960
O33         O  0.13105740  0.17433552  0.21732886    -0.74940
O34         O  0.01743883  0.16473042  0.28002670    -0.75000
Ni35       Ni  0.12419442  0.27387943  0.25163351     1.25410
Ni36       Ni  0.07261720  0.16616307  0.24851394     1.25360
C37         C  0.02242293  0.21295257  0.29227351     0.87260
C38         C  0.17464302  0.22584345  0.20865340     0.87190
C39         C  0.03149484  0.22039270  0.20459792     0.87220
C40         C  0.16388809  0.21778360  0.29575350     0.87390
O41         O  0.79473563  0.94720815  0.29271753    -0.74920
O42         O  0.80578552  0.86028210  0.21979114    -0.74950
O43         O  0.80019723  0.96129543  0.22767842    -0.75000
O44         O  0.80166157  0.84628949  0.28458472    -0.75050
O45         O  0.70127259  0.79159342  0.28398374    -0.74980
O46         O  0.70020722  0.90501487  0.22307497    -0.74960
O47         O  0.70567688  0.80218649  0.21856185    -0.74940
O48         O  0.69446075  0.89501554  0.28899367    -0.75000
Ni49       Ni  0.80399824  0.90570456  0.25638920     1.25410
Ni50       Ni  0.69661063  0.84647914  0.25370510     1.25360
C51         C  0.74293184  0.93682602  0.30214256     0.87260
C52         C  0.75771105  0.81630377  0.20753793     0.87190
C53         C  0.75055826  0.95202119  0.21564830     0.87220
C54         C  0.75245841  0.79890635  0.29252473     0.87390
C55         C  0.17012599  0.36428050  0.89603391     0.00070
C56         C  0.14575719  0.31998109  0.87240388     0.00070
C57         C  0.13068578  0.83085542  0.87903590     0.00070
C58         C  0.14941719  0.81128853  0.90476369     0.00070
C59         C  0.67492424  0.83957481  0.87766884     0.00070
C60         C  0.62899567  0.81822271  0.89988101     0.00070
C61         C  0.14936322  0.82799222  0.63600279     0.00070
C62         C  0.16298963  0.81236822  0.60673261     0.00070
O63         O  0.15615374  0.02910195  0.78887891    -0.74920
O64         O  0.15497888  0.12872514  0.72173427    -0.74950
O65         O  0.15295561  0.02178348  0.72415892    -0.75000
O66         O  0.15991416  0.13492150  0.78720065    -0.75050
O67         O  0.26037427  0.18471971  0.78565254    -0.74980
O68         O  0.25343160  0.07105285  0.72243672    -0.74960
O69         O  0.25542123  0.17886583  0.71963493    -0.74940
O70         O  0.25646999  0.07668971  0.78830366    -0.75000
Ni71       Ni  0.15262028  0.07707819  0.75535857     1.25410
Ni72       Ni  0.26022069  0.12970037  0.75378161     1.25360
C73         C  0.20554637  0.03640374  0.80008064     0.87260
C74         C  0.20447304  0.17140516  0.71038293     0.87190
C75         C  0.20218250  0.02615631  0.71430860     0.87220
C76         C  0.21106510  0.17792937  0.79705138     0.87390
C77         C  0.13580363  0.30241468  0.62577740     0.00070
C78         C  0.16120619  0.34749319  0.60311942     0.00070
C79         C  0.68499145  0.84820080  0.62026697     0.00070
C80         C  0.64530656  0.82478452  0.59486034     0.00070
O81         O  0.94789909  0.14635059  0.77993755    -0.74920
O82         O  0.83455893  0.03466714  0.71861605    -0.74950
O83         O  0.93861512  0.14016165  0.71465486    -0.75000
O84         O  0.84401265  0.04003467  0.78397309    -0.75050
O85         O  0.79123035  0.08682823  0.78623409    -0.74980
O86         O  0.89002860  0.19141711  0.71635804    -0.74960
O87         O  0.78403090  0.08406866  0.71967138    -0.74940
O88         O  0.89725608  0.19555727  0.78236675    -0.75000
Ni89       Ni  0.89294450  0.08867302  0.74924508     1.25410
Ni90       Ni  0.83862321  0.14126274  0.75127148     1.25360
C91         C  0.94141235  0.18927422  0.79116993     0.87260
C92         C  0.79120127  0.04130287  0.70879705     0.87190
C93         C  0.93049552  0.18212432  0.70403663     0.87220
C94         C  0.80209783  0.04620027  0.79668232     0.87390
O95         O  0.88977811  0.70478646  0.78283545    -0.74920
O96         O  0.79023228  0.71536873  0.71614598    -0.74950
O97         O  0.89460354  0.71308967  0.71660078    -0.75000
O98         O  0.78480284  0.70744798  0.78245973    -0.75050
O99         O  0.83822494  0.80811409  0.78572186    -0.74980
O100        O  0.94680806  0.81344474  0.72126174    -0.74960
O101        O  0.84438945  0.81569035  0.72047463    -0.74940
O102        O  0.94128723  0.80541037  0.78674799    -0.75000
Ni103      Ni  0.83785511  0.70631504  0.74948993     1.25410
Ni104      Ni  0.89443663  0.81398260  0.75378839     1.25360
C105        C  0.93212538  0.75375437  0.79547039     0.87260
C106        C  0.80228404  0.76794224  0.70688930     0.87190
C107        C  0.93805780  0.76479175  0.70763877     0.87220
C108        C  0.79325094  0.75748363  0.79427907     0.87390
O109        O  0.42639090  0.43624875  0.04295292    -0.74920
O110        O  0.48679886  0.57813538  0.99141820    -0.74950
O111        O  0.38794951  0.46672783  0.98899105    -0.75000
O112        O  0.52718461  0.54727928  0.04447603    -0.75050
O113        O  0.57395181  0.51368239  0.01228957    -0.74980
O114        O  0.43647440  0.43523313  0.95671959    -0.74960
O115        O  0.53551693  0.54733107  0.95910084    -0.74940
O116        O  0.47401331  0.40303711  0.01124452    -0.75000
Ni117      Ni  0.45533499  0.50820612  0.01804281     1.25410
Ni118      Ni  0.50665595  0.47356580  0.98366924     1.25360
C119        C  0.44036615  0.39644965  0.03588194     0.87260
C120        C  0.52156084  0.58707165  0.96726771     0.87190
C121        C  0.38990139  0.43859346  0.96355540     0.87220
C122        C  0.57332644  0.54282807  0.03742641     0.87390
O123        O  0.90224826  0.39543874  0.01287751    -0.74920
O124        O  0.97267123  0.53761187  0.96054546    -0.74950
O125        O  0.97775409  0.43470495  0.96131688    -0.75000
O126        O  0.89723025  0.49816456  0.01192186    -0.75050
O127        O  0.97342395  0.53806874  0.04732117    -0.74980
O128        O  0.05734815  0.48183458  0.99416900    -0.74960
O129        O  0.04848595  0.58246742  0.99605388    -0.74940
O130        O  0.98245959  0.43757926  0.04568489    -0.75000
Ni131      Ni  0.93460063  0.46478477  0.98545329     1.25410
Ni132      Ni  0.01828682  0.51149333  0.02199310     1.25360
C133        C  0.93106228  0.39311782  0.03759616     0.87260
C134        C  0.02141342  0.58393572  0.97034473     0.87190
C135        C  0.03116814  0.44832047  0.96933774     0.87220
C136        C  0.92204041  0.52856926  0.03783651     0.87390
O137        O  0.46436891  0.06473446  0.01136913    -0.74920
O138        O  0.53004403  0.99130393  0.95696977    -0.74950
O139        O  0.42253266  0.98732314  0.96064732    -0.75000
O140        O  0.57113348  0.06727022  0.00856493    -0.75050
O141        O  0.53477607  0.99007206  0.04316796    -0.74980
O142        O  0.38877406  0.90868845  0.99414472    -0.74960
O143        O  0.49682831  0.91407419  0.99148731    -0.74940
O144        O  0.42778677  0.98629580  0.04524789    -0.75000
Ni145      Ni  0.49826348  0.03043759  0.98316485     1.25410
Ni146      Ni  0.46070179  0.94691812  0.01968467     1.25360
C147        C  0.43510886  0.03763764  0.03697979     0.87260
C148        C  0.52526824  0.94134848  0.96558397     0.87190
C149        C  0.38117063  0.93467298  0.96970108     0.87220
C150        C  0.57740004  0.04150001  0.03368342     0.87390
O151        O  0.57216204  0.06910023  0.49492852    -0.74920
O152        O  0.42558647  0.98568331  0.54378304    -0.74950
O153        O  0.53217490  0.98843711  0.54396236    -0.75000
O154        O  0.46543182  0.06701797  0.49523324    -0.74210
O155        O  0.42735505  0.99165866  0.45901440    -0.74980
O156        O  0.49736881  0.91459958  0.50689485    -0.74960
O157        O  0.38966474  0.90978188  0.50782788    -0.74940
O158        O  0.53408368  0.99504673  0.45791601    -0.75000
Ni159      Ni  0.50015382  0.03028917  0.52074863     1.25410
Ni160      Ni  0.46074378  0.95004028  0.48163349     1.25360
C161        C  0.57707977  0.04559463  0.46836514     0.87260
C162        C  0.38375127  0.93397722  0.53376841     0.87190
C163        C  0.52660089  0.93906329  0.53317401     0.87220
C164        C  0.43453425  0.04194069  0.46956852     0.87390
O165        O  0.06072079  0.58478514  0.51345682    -0.74920
O166        O  0.98962781  0.44523000  0.45797310    -0.74950
O167        O  0.98826380  0.55046169  0.46083119    -0.75000
O168        O  0.06233216  0.48040608  0.51065544    -0.75050
O169        O  0.98054648  0.43387510  0.54203672    -0.74980
O170        O  0.90945327  0.51029524  0.49452367    -0.74960
O171        O  0.90773090  0.40383902  0.48944385    -0.74940
O172        O  0.98158195  0.54025640  0.54687856    -0.75000
Ni173      Ni  0.02809808  0.51675251  0.48456247     1.25410
Ni174      Ni  0.94191970  0.47038738  0.51939053     1.25360
C175        C  0.03269486  0.58543868  0.53906777     0.87260
C176        C  0.93676309  0.40159265  0.46464997     0.87190
C177        C  0.93727128  0.54287613  0.46984633     0.87220
C178        C  0.03342305  0.44508016  0.53422935     0.87390
O179        O  0.54012612  0.54350016  0.54625289    -0.74920
O180        O  0.47154493  0.40000555  0.49375584    -0.74950
O181        O  0.57816748  0.50578171  0.49500177    -0.75000
O182        O  0.43248741  0.43760393  0.54523095    -0.75050
O183        O  0.39509500  0.47640029  0.51041267    -0.74980
O184        O  0.54223075  0.54858920  0.46185941    -0.74960
O185        O  0.43566256  0.44103681  0.45933309    -0.74940
O186        O  0.50063568  0.58275543  0.51301611    -0.75000
Ni187      Ni  0.50686134  0.47024549  0.52130711     1.25410
Ni188      Ni  0.46712277  0.51363682  0.48493164     1.25360
C189        C  0.53191656  0.58676496  0.53804297     0.87260
C190        C  0.44211707  0.39686025  0.46805284     0.87190
C191        C  0.58450423  0.53929238  0.47059570     0.87220
C192        C  0.38922106  0.44472192  0.53556351     0.87390
C193        C  0.62390097  0.67851188  0.55683832    -0.09650
C194        C  0.56094081  0.64334926  0.55672872     0.06550
C195        C  0.52698836  0.66576572  0.57142259    -0.03420
C196        C  0.55622348  0.72346050  0.58524602    -0.07870
C197        C  0.61929532  0.76068261  0.58382904     0.05660
C198        C  0.65338105  0.73724994  0.56958780    -0.02890
Br199      Br  0.73859533  0.78427706  0.56241335    -0.02590
H200        H  0.65010420  0.66162666  0.54499471     0.09570
H201        H  0.52925464  0.74027417  0.59621758     0.07590
Br202      Br  0.44061436  0.61936297  0.57280097    -0.03010
C203        C  0.58555709  0.87793290  0.59862545    -0.09650
C204        C  0.61779448  0.85805966  0.57966615     0.06550
C205        C  0.61922461  0.86546523  0.54556969    -0.03420
C206        C  0.58822741  0.89079058  0.53123660    -0.07870
C207        C  0.55688326  0.91127416  0.55012525     0.05660
C208        C  0.55677243  0.90596094  0.58426380    -0.02890
Br209      Br  0.51627429  0.93382599  0.61237194    -0.02590
H210        H  0.58189182  0.87090498  0.62464332     0.09570
H211        H  0.58995193  0.89597210  0.50504923     0.07590
Br212      Br  0.66490737  0.84487140  0.51689946    -0.03010
C213        C  0.75974717  0.00956075  0.65158447    -0.09650
C214        C  0.74906700  0.99757369  0.68495904     0.06550
C215        C  0.70584879  0.93936764  0.69507244    -0.03420
C216        C  0.67906473  0.89265391  0.67236980    -0.07870
C217        C  0.69565206  0.90249073  0.63939525     0.05660
C218        C  0.73260634  0.96255650  0.62859316    -0.02890
Br219      Br  0.75238998  0.98272536  0.58365019    -0.02590
H220        H  0.79250937  0.05465833  0.64357549     0.09570
H221        H  0.64927872  0.84716462  0.68100250     0.07590
Br222      Br  0.68711399  0.92014716  0.74007088    -0.03010
C223        C  0.67951999  0.76257100  0.65288192    -0.09650
C224        C  0.71402849  0.81632544  0.63523491     0.06550
C225        C  0.77732187  0.84650373  0.63785257    -0.03420
C226        C  0.80422747  0.82680897  0.65987569    -0.07870
C227        C  0.77005090  0.77651324  0.67959074     0.05660
C228        C  0.70718681  0.74184263  0.67459692    -0.02890
Br229      Br  0.65660949  0.66969659  0.69865850    -0.02590
H230        H  0.63085231  0.73889731  0.65138807     0.09570
H231        H  0.85263905  0.85295428  0.66260237     0.07590
Br232      Br  0.83075754  0.91637830  0.61293509    -0.03010
C233        C  0.22221951  0.36309116  0.55394439    -0.09650
C234        C  0.22135274  0.36768121  0.58796358     0.06550
C235        C  0.27694006  0.39656591  0.60487134    -0.03420
C236        C  0.33113082  0.41883169  0.58751290    -0.07870
C237        C  0.33139337  0.41588652  0.55339047     0.05660
C238        C  0.27602135  0.38767001  0.53666985    -0.02890
Br239      Br  0.26993078  0.38115721  0.49016922    -0.02590
H240        H  0.18026134  0.34144043  0.54047768     0.09570
H241        H  0.37346319  0.44180845  0.60058588     0.07590
Br242      Br  0.28329931  0.41539355  0.65041575    -0.03010
C243        C  0.06833753  0.33351460  0.57409897    -0.09650
C244        C  0.12552326  0.37253254  0.58773657     0.06550
C245        C  0.15099034  0.43544153  0.58345730    -0.03420
C246        C  0.12074270  0.45739329  0.56518723    -0.07870
C247        C  0.06292211  0.41867928  0.55302977     0.05660
C248        C  0.03606750  0.35614951  0.55807659    -0.02890
Br249      Br  0.95741408  0.29961541  0.54169454    -0.02590
H250        H  0.04893943  0.28514290  0.57522662     0.09570
H251        H  0.14240354  0.50538977  0.56076787     0.07590
Br252      Br  0.22615266  0.49473674  0.60239303    -0.03010
C253        C  0.05880486  0.31106190  0.65934786    -0.09650
C254        C  0.07236352  0.27767539  0.63720318     0.06550
C255        C  0.02964945  0.21625705  0.63207288    -0.03420
C256        C  0.97886246  0.18751596  0.65182794    -0.07870
C257        C  0.96972123  0.21875143  0.67712778     0.05660
C258        C  0.00807903  0.28181496  0.67964551    -0.02890
Br259      Br  0.99871644  0.32800643  0.71346788    -0.02590
H260        H  0.09112083  0.35846795  0.66336559     0.09570
H261        H  0.94894183  0.13918711  0.64919575     0.07590
Br262      Br  0.04062694  0.16813862  0.60014009    -0.03010
C263        C  0.21022111  0.21347234  0.65476364    -0.09650
C264        C  0.20096168  0.21457019  0.68837656     0.06550
C265        C  0.17846451  0.25059479  0.70034363    -0.03420
C266        C  0.16668717  0.28519652  0.67923290    -0.07870
C267        C  0.16970252  0.28008029  0.64534648     0.05660
C268        C  0.19325021  0.24453454  0.63304037    -0.02890
Br269      Br  0.19749785  0.23063698  0.58754089    -0.02590
H270        H  0.22595314  0.18452544  0.64522159     0.09570
H271        H  0.14975031  0.31254072  0.68951232     0.07590
Br272      Br  0.15378761  0.24803348  0.74461231    -0.03010
C273        C  0.26396977  0.82807599  0.59222592    -0.09650
C274        C  0.22184375  0.84736908  0.59010158     0.06550
C275        C  0.23307734  0.89442287  0.56841670    -0.03420
C276        C  0.28577158  0.92140381  0.54984902    -0.07870
C277        C  0.32758788  0.90220604  0.55227970     0.05660
C278        C  0.31609937  0.85457682  0.57320913    -0.02890
Br279      Br  0.36994338  0.82390561  0.57628117    -0.02590
H280        H  0.25669544  0.79242441  0.60870111     0.09570
H281        H  0.29443787  0.95798801  0.53371651     0.07590
Br282      Br  0.18298895  0.92954639  0.56626694    -0.03010
C283        C  0.13329995  0.70501129  0.59904573    -0.09650
C284        C  0.12191274  0.75172688  0.59204746     0.06550
C285        C  0.07564376  0.74031419  0.56973573    -0.03420
C286        C  0.04547235  0.68479591  0.55332625    -0.07870
C287        C  0.05963592  0.63986206  0.55936994     0.05660
C288        C  0.10224147  0.64939146  0.58324109    -0.02890
Br289      Br  0.11961865  0.58801692  0.59515851    -0.02590
H290        H  0.16671354  0.71163062  0.61697716     0.09570
H291        H  0.01157374  0.67702023  0.53534262     0.07590
Br292      Br  0.05055324  0.79707429  0.56055329    -0.03010
C293        C  0.05638273  0.83163059  0.64219892    -0.09650
C294        C  0.08461420  0.79767755  0.64593944     0.06550
C295        C  0.05695718  0.74558477  0.66565383    -0.03420
C296        C  0.00412953  0.73099996  0.68269226    -0.07870
C297        C  0.98063251  0.76968702  0.68205937     0.05660
C298        C  0.00537005  0.81859729  0.66020259    -0.02890
Br299      Br  0.97396232  0.87164599  0.65509346    -0.02590
H300        H  0.07739090  0.87192344  0.62733732     0.09570
H301        H  0.98514716  0.69289441  0.69908352     0.07590
Br302      Br  0.09501131  0.70004326  0.67558715    -0.03010
C303        C  0.17262423  0.87147010  0.69137062    -0.09650
C304        C  0.19157219  0.87934935  0.65864096     0.06550
C305        C  0.23031780  0.93989519  0.64858092    -0.03420
C306        C  0.23075922  0.98726112  0.66602263    -0.07870
C307        C  0.19975072  0.97623791  0.69548337     0.05660
C308        C  0.17357305  0.91828870  0.70906719    -0.02890
Br309      Br  0.13682984  0.89968778  0.75130675    -0.02590
H310        H  0.14896337  0.82676707  0.70179815     0.09570
H311        H  0.25960410  0.03344966  0.65810186     0.07590
Br312      Br  0.30771785  0.96461813  0.63016382    -0.03010
C313        C  0.59291167  0.75393263  0.94923959    -0.09650
C314        C  0.59973949  0.75642358  0.91522161     0.06550
C315        C  0.57402621  0.70070311  0.89811565    -0.03420
C316        C  0.55199248  0.64624977  0.91536531    -0.07870
C317        C  0.54675646  0.64497404  0.94942454     0.05660
C318        C  0.56339314  0.69953120  0.96590376    -0.02890
Br319      Br  0.54389610  0.70454905  0.01057120    -0.02590
H320        H  0.60844373  0.79466601  0.96338305     0.09570
H321        H  0.53451577  0.60418024  0.90200858     0.07590
Br322      Br  0.55543677  0.69352652  0.85266791    -0.03010
C323        C  0.61180691  0.92709741  0.95536209    -0.09650
C324        C  0.55478527  0.91584382  0.94596701     0.06550
C325        C  0.52671882  0.87951757  0.91853232    -0.03420
C326        C  0.55291423  0.85001298  0.90294803    -0.07870
C327        C  0.60876480  0.85906263  0.91316018     0.05660
C328        C  0.63961244  0.90016480  0.93870789    -0.02890
Br329      Br  0.71661301  0.91609398  0.95392516    -0.02590
H330        H  0.63419573  0.95592099  0.97613589     0.09570
H331        H  0.52926959  0.81914795  0.88306160     0.07590
Br332      Br  0.45298020  0.86895308  0.90149587    -0.03010
C333        C  0.68409620  0.80046249  0.82481982    -0.09650
C334        C  0.69107472  0.80012349  0.85864814     0.06550
C335        C  0.72276955  0.77307714  0.87133182    -0.03420
C336        C  0.75195264  0.75328666  0.84984834    -0.07870
C337        C  0.74900091  0.75930796  0.81607506     0.05660
C338        C  0.71269437  0.78074536  0.80374420    -0.02890
Br339      Br  0.70629092  0.79099512  0.75816418    -0.02590
H340        H  0.65915896  0.82002686  0.81458751     0.09570
H341        H  0.78042315  0.73735264  0.85954705     0.07590
Br342      Br  0.73368742  0.76813955  0.91711468    -0.03010
C343        C  0.79943017  0.98634164  0.84389147    -0.09650
C344        C  0.76781774  0.00472272  0.82382808     0.06550
C345        C  0.70473672  0.97622342  0.82753395    -0.03420
C346        C  0.67444156  0.92521554  0.84772791    -0.07870
C347        C  0.70635759  0.90378531  0.86567104     0.05660
C348        C  0.76984945  0.93785664  0.86505416    -0.02890
Br349      Br  0.81984639  0.91863267  0.89066013    -0.02590
H350        H  0.84790132  0.00792792  0.84192111     0.09570
H351        H  0.62574455  0.89967636  0.84736526     0.07590
Br352      Br  0.65722176  0.00072078  0.80343668    -0.03010
C353        C  0.06827343  0.64212125  0.92037943    -0.09650
C354        C  0.04717479  0.64027156  0.95200577     0.06550
C355        C  0.05574860  0.69354434  0.96677858    -0.03420
C356        C  0.08687381  0.74814502  0.95022008    -0.07870
C357        C  0.10951697  0.75065034  0.91889453     0.05660
C358        C  0.10026329  0.69701486  0.90391665    -0.02890
Br359      Br  0.13681145  0.69688410  0.86327799    -0.02590
H360        H  0.06289475  0.60134643  0.90923782     0.09570
H361        H  0.09483734  0.78926308  0.96216538     0.07590
Br362      Br  0.02600705  0.69406347  0.00953672    -0.03010
C363        C  0.24282369  0.81682585  0.92471405    -0.09650
C364        C  0.21039965  0.84676834  0.92013477     0.06550
C365        C  0.23365604  0.90489602  0.93406343    -0.03420
C366        C  0.29130061  0.93429452  0.94798693    -0.07870
C367        C  0.32323259  0.90398189  0.95223370     0.05660
C368        C  0.29674953  0.84343019  0.94205044    -0.02890
Br369      Br  0.32928144  0.79305933  0.95284856    -0.02590
H370        H  0.22468645  0.77094994  0.91613443     0.09570
H371        H  0.30911124  0.97924425  0.95808413     0.07590
Br372      Br  0.18555675  0.94112991  0.94166995    -0.03010
C373        C  0.13772904  0.92813956  0.86891353    -0.09650
C374        C  0.16485817  0.89305988  0.86562748     0.06550
C375        C  0.21386632  0.91232019  0.84405573    -0.03420
C376        C  0.23185004  0.96384368  0.82475350    -0.07870
C377        C  0.20083358  0.99573685  0.82654451     0.05660
C378        C  0.15547517  0.97904620  0.85017272    -0.02890
Br379      Br  0.11188943  0.02069448  0.85657237    -0.02590
H380        H  0.10007665  0.91421464  0.88522912     0.09570
H381        H  0.26631756  0.97567460  0.80644498     0.07590
Br382      Br  0.25236560  0.86601828  0.83729471    -0.03010
C383        C  0.07427930  0.77280110  0.83045579    -0.09650
C384        C  0.07203919  0.79168473  0.86224233     0.06550
C385        C  0.01753416  0.78583587  0.87360006    -0.03420
C386        C  0.96905003  0.76730943  0.85211774    -0.07870
C387        C  0.97335450  0.75269845  0.81970406     0.05660
C388        C  0.02520869  0.75235325  0.80948502    -0.02890
Br389      Br  0.03399016  0.73130975  0.76595304    -0.02590
H390        H  0.11597720  0.77809676  0.82107602     0.09570
H391        H  0.92943611  0.76825718  0.86011931     0.07590
Br392      Br  0.00891896  0.80938619  0.91667897    -0.03010
C393        C  0.23100736  0.34447199  0.93508141    -0.09650
C394        C  0.22981361  0.37975571  0.90958420     0.06550
C395        C  0.28512499  0.42594249  0.89673883    -0.03420
C396        C  0.33842815  0.44397336  0.91401899    -0.07870
C397        C  0.33809680  0.41174284  0.94143358     0.05660
C398        C  0.28540586  0.35792136  0.94937765    -0.02890
Br399      Br  0.28776795  0.29772695  0.97520005    -0.02590
H400        H  0.18971057  0.30571168  0.94343583     0.09570
H401        H  0.37972867  0.48395968  0.90657049     0.07590
Br402      Br  0.29033638  0.47012801  0.85811413    -0.03010
C403        C  0.07354372  0.34828703  0.92169976    -0.09650
C404        C  0.13461230  0.38828183  0.91394763     0.06550
C405        C  0.16066588  0.44828137  0.92671163    -0.03420
C406        C  0.12551478  0.46606132  0.94409721    -0.07870
C407        C  0.06433970  0.42659264  0.94957103     0.05660
C408        C  0.03795449  0.36712674  0.93781391    -0.02890
Br409      Br  0.95464484  0.30817755  0.94484594    -0.02590
H410        H  0.05331709  0.30096647  0.91708993     0.09570
H411        H  0.14640771  0.51178735  0.95356967     0.07590
Br412      Br  0.24321983  0.51109724  0.92423878    -0.03010
C413        C  0.03730593  0.24164256  0.86589350    -0.09650
C414        C  0.08606808  0.29765762  0.85624007     0.06550
C415        C  0.08154161  0.32198215  0.82640128    -0.03420
C416        C  0.03158288  0.28817418  0.80600541    -0.07870
C417        C  0.98539122  0.23051039  0.81522842     0.05660
C418        C  0.98722264  0.20887205  0.84610717    -0.02890
Br419      Br  0.92362423  0.13309314  0.86182663    -0.02590
H420        H  0.03843478  0.22166605  0.88859002     0.09570
H421        H  0.03060113  0.30538830  0.78220193     0.07590
Br422      Br  0.14439480  0.39872915  0.81130280    -0.03010
C423        C  0.17637821  0.19559976  0.84959342    -0.09650
C424        C  0.21151432  0.21987187  0.82168832     0.06550
C425        C  0.23785015  0.28203305  0.81569332    -0.03420
C426        C  0.21867812  0.31559346  0.83368706    -0.07870
C427        C  0.17850428  0.28972690  0.85985385     0.05660
C428        C  0.16199280  0.23059811  0.86949047    -0.02890
Br429      Br  0.11983626  0.19415700  0.90903265    -0.02590
H430        H  0.15872355  0.14866691  0.85550156     0.09570
H431        H  0.23265010  0.36076591  0.82589772     0.07590
Br432      Br  0.29596148  0.32190503  0.78178320    -0.03010
C433        C  0.89949762  0.25598390  0.42127756    -0.09650
C434        C  0.84115279  0.23702652  0.40969554     0.06550
C435        C  0.81835785  0.27654025  0.41332278    -0.03420
C436        C  0.85110621  0.33058747  0.43057161    -0.07870
C437        C  0.90771440  0.34781003  0.44349405     0.05660
C438        C  0.93301115  0.31119106  0.43778789    -0.02890
Br439      Br  0.01064320  0.33195121  0.45449737    -0.02590
H440        H  0.91777269  0.22636578  0.41917006     0.09570
H441        H  0.83204916  0.35934605  0.43410142     0.07590
Br442      Br  0.74371419  0.26086694  0.39449706    -0.03010
C443        C  0.68823524  0.09585682  0.46595660    -0.09650
C444        C  0.63358966  0.07649922  0.44978998     0.06550
C445        C  0.63388536  0.08558688  0.41606752    -0.03420
C446        C  0.68852313  0.11540156  0.39933084    -0.07870
C447        C  0.74357710  0.13623810  0.41548078     0.05660
C448        C  0.74287302  0.12467293  0.44905634    -0.02890
Br449      Br  0.81448431  0.14411183  0.47282737    -0.02590
H450        H  0.68830221  0.08746093  0.49174609     0.09570
H451        H  0.68798758  0.12487795  0.37388932     0.07590
Br452      Br  0.56152189  0.06256419  0.39209915    -0.03010
C453        C  0.78320844  0.03961125  0.37484574    -0.09650
C454        C  0.77699423  0.08607623  0.36095896     0.06550
C455        C  0.74402418  0.07398641  0.33179433    -0.03420
C456        C  0.72381053  0.01901145  0.31554379    -0.07870
C457        C  0.74057453  0.97806055  0.32635336     0.05660
C458        C  0.76772274  0.98698620  0.35706265    -0.02890
Br459      Br  0.78887228  0.93090312  0.37411072    -0.02590
H460        H  0.80620170  0.04705335  0.39789419     0.09570
H461        H  0.70143034  0.01167238  0.29228916     0.07590
Br462      Br  0.73152488  0.13320197  0.31083544    -0.03010
C463        C  0.91309803  0.15212744  0.36245497    -0.09650
C464        C  0.87894667  0.17997914  0.35772210     0.06550
C465        C  0.89964234  0.22736521  0.33492393    -0.03420
C466        C  0.94949104  0.24085720  0.31507402    -0.07870
C467        C  0.97831505  0.20694725  0.31723850     0.05660
C468        C  0.96077006  0.16359855  0.34201696    -0.02890
Br469      Br  0.99776667  0.11589969  0.34857696    -0.02590
H470        H  0.90054549  0.11826843  0.38104408     0.09570
H471        H  0.96329007  0.27527013  0.29658701     0.07590
Br472      Br  0.86085574  0.27340958  0.32886112    -0.03010
C473        C  0.63254200  0.07269285  0.08636991    -0.09650
C474        C  0.63435213  0.07132333  0.05224678     0.06550
C475        C  0.69055267  0.09846572  0.03657042    -0.03420
C476        C  0.74330623  0.12718516  0.05494922    -0.07870
C477        C  0.74202868  0.13137210  0.08908973     0.05660
C478        C  0.68540128  0.10414536  0.10482494    -0.02890
Br479      Br  0.67552823  0.11286522  0.15040348    -0.02590
H480        H  0.58953074  0.05122649  0.09873594     0.09570
H481        H  0.78603263  0.14707213  0.04229280     0.07590
Br482      Br  0.69836485  0.09536852  0.99026148    -0.03010
C483        C  0.89100699  0.24255393  0.07325428    -0.09650
C484        C  0.84010999  0.23003872  0.09183388     0.06550
C485        C  0.82270095  0.27383014  0.09414444    -0.03420
C486        C  0.85383601  0.32734331  0.07666883    -0.07870
C487        C  0.90333495  0.33882731  0.05751292     0.05660
C488        C  0.92329818  0.29711707  0.05658553    -0.02890
Br489      Br  0.99241136  0.31156825  0.03176959    -0.02590
H490        H  0.90446545  0.20905984  0.07088714     0.09570
H491        H  0.83911407  0.36004474  0.07783741     0.07590
Br492      Br  0.75713964  0.26352216  0.12081967    -0.03010
C493        C  0.97560103  0.17380817  0.15404326    -0.09650
C494        C  0.99046152  0.21730816  0.17854249     0.06550
C495        C  0.95824048  0.24820062  0.18030432    -0.03420
C496        C  0.90814644  0.23042790  0.15996799    -0.07870
C497        C  0.88923347  0.18154675  0.13823333     0.05660
C498        C  0.92623517  0.15650425  0.13377327    -0.02890
Br499      Br  0.90893688  0.09504720  0.10199006    -0.02590
H500        H  0.00004577  0.14996812  0.15204396     0.09570
H501        H  0.88013779  0.25021603  0.16365598     0.07590
Br502      Br  0.97415222  0.30749440  0.21329304    -0.03010
C503        C  0.79138709  0.10299487  0.18183729    -0.09650
C504        C  0.78740892  0.09193397  0.14819506     0.06550
C505        C  0.76008737  0.03134426  0.13718843    -0.03420
C506        C  0.74187278  0.98456226  0.15998499    -0.07870
C507        C  0.75323058  0.99767209  0.19330560     0.05660
C508        C  0.77800989  0.05755597  0.20403011    -0.02890
Br509      Br  0.80335998  0.08217760  0.24796457    -0.02590
H510        H  0.81073449  0.14867749  0.19099843     0.09570
H511        H  0.72386471  0.93857936  0.15146585     0.07590
Br512      Br  0.75148790  0.00937592  0.09206872    -0.03010
C513        C  0.73108212  0.64985516  0.42851124    -0.09650
C514        C  0.74606727  0.60964700  0.41365550     0.06550
C515        C  0.70744162  0.54703414  0.41795887    -0.03420
C516        C  0.65656290  0.52591458  0.43751547    -0.07870
C517        C  0.64060495  0.56540348  0.45157437     0.05660
C518        C  0.67807709  0.62805596  0.44690679    -0.02890
Br519      Br  0.66032980  0.68517935  0.46648842    -0.02590
H520        H  0.76073920  0.69812047  0.42582082     0.09570
H521        H  0.62871548  0.47808748  0.44137342     0.07590
Br522      Br  0.71920274  0.48768442  0.39608570    -0.03010
C523        C  0.86524064  0.58049365  0.40143773    -0.09650
C524        C  0.84777146  0.61848936  0.41635641     0.06550
C525        C  0.86337657  0.63390848  0.44950215    -0.03420
C526        C  0.89274593  0.60909284  0.46666329    -0.07870
C527        C  0.90949971  0.57108798  0.45111530     0.05660
C528        C  0.89725646  0.55852144  0.41791484    -0.02890
Br529      Br  0.91809033  0.50677131  0.39453893    -0.02590
H530        H  0.84977121  0.56357473  0.37746359     0.09570
H531        H  0.90302341  0.61990817  0.49220836     0.07590
Br532      Br  0.84782004  0.68935682  0.47280479    -0.03010
C533        C  0.80389689  0.69003869  0.31255666    -0.09650
C534        C  0.78059078  0.67013441  0.34407887     0.06550
C535        C  0.73085135  0.67710630  0.35263877    -0.03420
C536        C  0.72305513  0.72130612  0.33678924    -0.07870
C537        C  0.75700294  0.75065733  0.30909400     0.05660
C538        C  0.79410970  0.73078704  0.29570149    -0.02890
Br539      Br  0.83422893  0.75800340  0.25451624    -0.02590
H540        H  0.83442181  0.67846150  0.30140166     0.09570
H541        H  0.68696285  0.72875456  0.34423132     0.07590
Br542      Br  0.65473958  0.60783825  0.36362465    -0.03010
C543        C  0.63852003  0.52897217  0.07566201    -0.09650
C544        C  0.62624026  0.56879843  0.05891340     0.06550
C545        C  0.66880046  0.63099555  0.05959144    -0.03420
C546        C  0.72255458  0.65240766  0.07682821    -0.07870
C547        C  0.73670546  0.61224137  0.09181148     0.05660
C548        C  0.69331296  0.54993977  0.09176604    -0.02890
Br549      Br  0.70607842  0.49094035  0.11287462    -0.02590
H550        H  0.60626806  0.48089684  0.07505227     0.09570
H551        H  0.75585342  0.70012158  0.07595386     0.07590
Br552      Br  0.66094006  0.68750240  0.03335363    -0.03010
C553        C  0.87164743  0.58815685  0.03799056    -0.09650
C554        C  0.89219347  0.55590207  0.05575992     0.06550
C555        C  0.88502498  0.55205530  0.08978232    -0.03420
C556        C  0.85598495  0.57904621  0.10527482    -0.07870
C557        C  0.83470120  0.61097544  0.08738108     0.05660
C558        C  0.84425220  0.61646699  0.05339801    -0.02890
Br559      Br  0.82487506  0.66496835  0.02645635    -0.02590
H560        H  0.87840508  0.59270614  0.01189909     0.09570
H561        H  0.84821838  0.57332891  0.13122275     0.07590
Br562      Br  0.91007558  0.50692363  0.11574208    -0.03010
C563        C  0.81830492  0.77057250  0.13620333    -0.09650
C564        C  0.79290887  0.70847130  0.14190852     0.06550
C565        C  0.74820514  0.68095676  0.16607338    -0.03420
C566        C  0.73301948  0.71637338  0.18538212    -0.07870
C567        C  0.76321188  0.77935123  0.18172471     0.05660
C568        C  0.80441300  0.80613140  0.15602721    -0.02890
Br569      Br  0.84452625  0.89135204  0.14770085    -0.02590
H570        H  0.85193976  0.79236948  0.11746803     0.09570
H571        H  0.70128147  0.69528516  0.20513750     0.07590
Br572      Br  0.71157007  0.59697413  0.17639968    -0.03010
C573        C  0.96259291  0.70347302  0.31846264    -0.09650
C574        C  0.99190073  0.76615695  0.32292479     0.06550
C575        C  0.97272173  0.78959022  0.34827414    -0.03420
C576        C  0.92074573  0.75106378  0.36593720    -0.07870
C577        C  0.88547711  0.68962702  0.35767304     0.05660
C578        C  0.90801200  0.66532825  0.33421977    -0.02890
Br579      Br  0.85961024  0.58599969  0.31547351    -0.02590
H580        H  0.97780214  0.68495584  0.29952377     0.09570
H581        H  0.90427766  0.77035590  0.38382221     0.07590
Br582      Br  0.01400045  0.87435022  0.35840095    -0.03010
C583        C  0.98588736  0.77678100  0.15256406    -0.09650
C584        C  0.98221184  0.75730410  0.18473762     0.06550
C585        C  0.93094547  0.70361012  0.19467755    -0.03420
C586        C  0.88183756  0.67374661  0.17380918    -0.07870
C587        C  0.88290679  0.69647590  0.14279236     0.05660
C588        C  0.93683450  0.74619285  0.13136772    -0.02890
Br589      Br  0.94401010  0.77649867  0.08811899    -0.02590
H590        H  0.02557095  0.81771409  0.14450783     0.09570
H591        H  0.84088554  0.63526019  0.18280137     0.07590
Br592      Br  0.92274675  0.67302277  0.23766957    -0.03010
C593        C  0.33691277  0.25056812  0.08003762    -0.09650
C594        C  0.37781212  0.23710670  0.09479243     0.06550
C595        C  0.44000349  0.28047516  0.09221360    -0.03420
C596        C  0.45949023  0.33042212  0.07167946    -0.07870
C597        C  0.41808320  0.34274869  0.05685634     0.05660
C598        C  0.35649123  0.30512568  0.06390579    -0.02890
Br599      Br  0.29749851  0.32745932  0.05478324    -0.02590
H600        H  0.28930385  0.21887451  0.08091611     0.09570
H601        H  0.50730851  0.36184952  0.06883808     0.07590
Br602      Br  0.50024148  0.28042700  0.11926698    -0.03010
C603        C  0.35737745  0.06507562  0.04879739    -0.09650
C604        C  0.41108878  0.06739483  0.05750364     0.06550
C605        C  0.44407354  0.10261475  0.08425500    -0.03420
C606        C  0.42314008  0.13452066  0.10205759    -0.07870
C607        C  0.37094783  0.13468923  0.09286165     0.05660
C608        C  0.33728477  0.09867156  0.06616860    -0.02890
Br609      Br  0.26462698  0.09492630  0.05204288    -0.02590
H610        H  0.33194777  0.03841193  0.02795737     0.09570
H611        H  0.44892164  0.16032854  0.12277663     0.07590
Br612      Br  0.52053873  0.11276706  0.09588488    -0.03010
C613        C  0.26783499  0.01369438  0.18482759    -0.09650
C614        C  0.20534353  0.98285294  0.18004302     0.06550
C615        C  0.18188542  0.00113497  0.15459913    -0.03420
C616        C  0.21998141  0.05293975  0.13683885    -0.07870
C617        C  0.28111063  0.08978409  0.14512187     0.05660
C618        C  0.30560944  0.06767521  0.16828965    -0.02890
Br619      Br  0.38825624  0.11086149  0.18130542    -0.02590
H620        H  0.28663617  0.99934170  0.20391688     0.09570
H621        H  0.20035851  0.06641546  0.11792940     0.07590
Br622      Br  0.09755975  0.95895945  0.14421433    -0.03010
C623        C  0.23332353  0.18247652  0.13667126    -0.09650
C624        C  0.28819792  0.19122339  0.14871983     0.06550
C625        C  0.31096139  0.22411594  0.17793432    -0.03420
C626        C  0.27574857  0.24110612  0.19619023    -0.07870
C627        C  0.21833445  0.22651666  0.18536782     0.05660
C628        C  0.19885425  0.20017306  0.15453928    -0.02890
Br629      Br  0.12339114  0.18372529  0.13673587    -0.02590
H630        H  0.21498327  0.15847587  0.11408296     0.09570
H631        H  0.29140545  0.26182423  0.21987292     0.07590
Br632      Br  0.38786524  0.24392474  0.19493024    -0.03010
C633        C  0.35049649  0.30284107  0.45076021    -0.09650
C634        C  0.41311956  0.34044549  0.44896987     0.06550
C635        C  0.44679543  0.32099039  0.43116427    -0.03420
C636        C  0.41765235  0.26591876  0.41459013    -0.07870
C637        C  0.35508421  0.22739952  0.41685953     0.05660
C638        C  0.32147974  0.24589437  0.43582588    -0.02890
Br639      Br  0.23855895  0.19316400  0.44654241    -0.02590
H640        H  0.32455634  0.31603276  0.46572015     0.09570
H641        H  0.44448972  0.25158583  0.40114514     0.07590
Br642      Br  0.53263717  0.36556589  0.43013594    -0.03010
C643        C  0.41526567  0.08146861  0.41863157    -0.09650
C644        C  0.40628443  0.07134238  0.45222797     0.06550
C645        C  0.37219396  0.09170772  0.46904936    -0.03420
C646        C  0.34613865  0.11952875  0.45212452    -0.07870
C647        C  0.35475512  0.12973216  0.41853962     0.05660
C648        C  0.39177996  0.11246617  0.40194234    -0.02890
Br649      Br  0.41866053  0.13686450  0.35821073    -0.02590
H650        H  0.44334038  0.06810433  0.40569212     0.09570
H651        H  0.31952081  0.13428359  0.46544848     0.07590
Br652      Br  0.35923322  0.08291157  0.51512988    -0.03010
C653        C  0.29082151  0.22683030  0.34728482    -0.09650
C654        C  0.25744639  0.17558856  0.36699202     0.06550
C655        C  0.19403031  0.14685755  0.36652717    -0.03420
C656        C  0.16559169  0.16565144  0.34495744    -0.07870
C657        C  0.19823486  0.21255363  0.32303916     0.05660
C658        C  0.26163891  0.24522141  0.32515512    -0.02890
Br659      Br  0.31012269  0.30870134  0.29532957    -0.02590
H660        H  0.33946611  0.24863956  0.34669577     0.09570
H661        H  0.11705785  0.14020215  0.34369842     0.07590
Br662      Br  0.14213674  0.07744150  0.39219414    -0.03010
C663        C  0.28384074  0.09727796  0.32668710    -0.09650
C664        C  0.27234111  0.08745882  0.36018016     0.06550
C665        C  0.23716645  0.02733658  0.37136097    -0.03420
C666        C  0.20883861  0.97996867  0.34866364    -0.07870
C667        C  0.21518971  0.99181887  0.31518060     0.05660
C668        C  0.25485467  0.05059866  0.30432437    -0.02890
Br669      Br  0.26585969  0.07121070  0.25916113    -0.02590
H670        H  0.31182596  0.14273999  0.31758994     0.09570
H671        H  0.17816014  0.93458263  0.35714351     0.07590
Br672      Br  0.22031725  0.00700206  0.41645804    -0.03010
loop_ 
_geom_bond_atom_site_label_1 
_geom_bond_atom_site_label_2 
_geom_bond_distance 
_geom_bond_site_symmetry_2 
_ccdc_geom_bond_type 
C1            C2   1.366       .  D
C1          C654   1.498       .  S
C1          C664   1.495       .  S
C2          C637   1.490       .  S
C2          C647   1.492       .  S
C3            C4   1.370       .  D
C3          C617   1.504       .  S
C3          C624   1.497       .  S
C4          C594   1.506       .  S
C4          C607   1.491       .  S
O5          Ni13   1.912       .  S
O5           C15   1.281       .  A
O6          Ni13   1.908       .  S
O6           C16   1.280       .  A
O7          Ni13   1.909       .  S
O7           C17   1.279       .  A
O8          Ni13   1.906       .  S
O8           C18   1.279       .  A
O9          Ni14   1.926       .  S
O9           C18   1.281       .  A
O10         Ni14   1.929       .  S
O10          C17   1.282       .  A
O11         Ni14   1.932       .  S
O11          C16   1.284       .  A
O12         Ni14   1.930       .  S
O12          C15   1.283       .  A
Ni13        Ni14   2.391       .  S
C15         C574   1.480   1_455  S
C16         C614   1.478       .  S
C17         C584   1.469   1_455  S
C18         C667   1.465       .  S
C19          C20   1.363       .  D
C19         C547   1.492       .  S
C19         C557   1.496       .  S
C20         C564   1.492       .  S
C20         C587   1.484       .  S
C21          C22   1.383       .  D
C21         C534   1.543       .  S
C21         C577   1.505       .  S
C22         C514   1.483       .  S
C22         C524   1.513       .  S
C23          C24   1.365       .  D
C23         C497   1.500       .  S
C23         C504   1.494       .  S
C24         C477   1.497       .  S
C24         C484   1.488       .  S
C25          C26   1.366       .  D
C25         C454   1.497       .  S
C25         C464   1.497       .  S
C26         C434   1.498       .  S
C26         C447   1.496       .  S
O27         Ni35   1.932       .  S
O27          C37   1.283       .  A
O28         Ni35   1.931       .  S
O28          C38   1.282       .  A
O29         Ni35   1.939       .  S
O29          C39   1.285       .  A
O30         Ni35   1.937       .  S
O30          C40   1.284       .  A
O31         Ni36   1.901       .  S
O31          C40   1.280       .  A
O32         Ni36   1.901       .  S
O32          C39   1.279       .  A
O33         Ni36   1.905       .  S
O33          C38   1.279       .  A
O34         Ni36   1.908       .  S
O34          C37   1.280       .  A
Ni35        Ni36   2.389       .  S
C37         C467   1.479   1_455  S
C38         C627   1.470       .  S
C39         C494   1.481   1_455  S
C40         C657   1.479       .  S
O41         Ni49   1.914       .  S
O41          C51   1.281       .  A
O42         Ni49   1.914       .  S
O42          C52   1.281       .  A
O43         Ni49   1.899       .  S
O43          C53   1.277       .  A
O44         Ni49   1.899       .  S
O44          C54   1.278       .  A
O45         Ni50   1.936       .  S
O45          C54   1.284       .  A
O46         Ni50   1.933       .  S
O46          C53   1.283       .  A
O47         Ni50   1.920       .  S
O47          C52   1.281       .  A
O48         Ni50   1.927       .  S
O48          C51   1.282       .  A
Ni49        Ni50   2.390       .  S
C51         C457   1.473       .  S
C52         C567   1.474       .  S
C53         C507   1.468       .  S
C54         C537   1.474       .  S
C55          C56   1.378       .  D
C55         C394   1.489       .  S
C55         C404   1.525       .  S
C56         C414   1.498       .  S
C56         C427   1.497       .  S
C57          C58   1.364       .  D
C57         C374   1.488       .  S
C57         C384   1.493       .  S
C58         C357   1.484       .  S
C58         C364   1.499       .  S
C59          C60   1.370       .  D
C59         C334   1.493       .  S
C59         C347   1.507       .  S
C60         C314   1.511       .  S
C60         C327   1.490       .  S
C61          C62   1.367       .  D
C61         C294   1.496       .  S
C61         C304   1.525       .  S
C62         C274   1.481       .  S
C62         C284   1.494       .  S
O63         Ni71   1.887       .  S
O63          C73   1.276       .  A
O64         Ni71   1.901       .  S
O64          C74   1.277       .  A
O65         Ni71   1.912       .  S
O65          C75   1.280       .  A
O66         Ni71   1.912       .  S
O66          C76   1.282       .  A
O67         Ni72   1.921       .  S
O67          C76   1.280       .  A
O68         Ni72   1.917       .  S
O68          C75   1.280       .  A
O69         Ni72   1.940       .  S
O69          C74   1.285       .  A
O70         Ni72   1.941       .  S
O70          C73   1.285       .  A
Ni71        Ni72   2.391       .  S
C73         C377   1.475   1_545  S
C74         C264   1.474       .  S
C75         C307   1.468   1_545  S
C76         C424   1.471       .  S
C77          C78   1.370       .  D
C77         C254   1.497       .  S
C77         C267   1.503       .  S
C78         C234   1.497       .  S
C78         C244   1.506       .  S
C79          C80   1.369       .  D
C79         C217   1.497       .  S
C79         C224   1.497       .  S
C80         C197   1.497       .  S
C80         C204   1.499       .  S
O81         Ni89   1.912       .  S
O81          C91   1.280       .  A
O82         Ni89   1.910       .  S
O82          C92   1.280       .  A
O83         Ni89   1.895       .  S
O83          C93   1.278       .  A
O84         Ni89   1.898       .  S
O84          C94   1.279       .  A
O85         Ni90   1.948       .  S
O85          C94   1.287       .  A
O86         Ni90   1.938       .  S
O86          C93   1.284       .  A
O87         Ni90   1.928       .  S
O87          C92   1.281       .  A
O88         Ni90   1.928       .  S
O88          C91   1.281       .  A
Ni89        Ni90   2.390       .  S
C91         C417   1.470       .  S
C92         C214   1.469   1_545  S
C93         C257   1.474       .  S
C94         C344   1.488       .  S
O95        Ni103   1.933       .  S
O95         C105   1.283       .  A
O96        Ni103   1.935       .  S
O96         C106   1.283       .  A
O97        Ni103   1.932       .  S
O97         C107   1.284       .  A
O98        Ni103   1.933       .  S
O98         C108   1.283       .  A
O99        Ni104   1.902       .  S
O99         C108   1.278       .  A
O100       Ni104   1.903       .  S
O100        C107   1.278       .  A
O101       Ni104   1.900       .  S
O101        C106   1.280       .  A
O102       Ni104   1.904       .  S
O102        C105   1.278       .  A
Ni103      Ni104   2.390       .  S
C105        C387   1.469       .  S
C106        C227   1.481       .  S
C107        C297   1.477       .  S
C108        C337   1.468       .  S
O109       Ni117   1.908       .  S
O109        C119   1.277       .  A
O110       Ni117   1.904   1_556  S
O110        C120   1.277       .  A
O111       Ni117   1.923   1_556  S
O111        C121   1.284       .  A
O112       Ni117   1.932       .  S
O112        C122   1.283       .  A
O113       Ni118   1.908   1_554  S
O113        C122   1.278       .  A
O114       Ni118   1.913       .  S
O114        C121   1.277       .  A
O115       Ni118   1.937       .  S
O115        C120   1.286       .  A
O116       Ni118   1.936   1_554  S
O116        C119   1.287       .  A
Ni117      Ni118   2.390   1_554  S
C119        C597   1.478       .  S
C120        C317   1.484       .  S
C121        C397   1.467       .  S
C122        C544   1.471       .  S
O123       Ni131   1.911   1_554  S
O123        C133   1.280       .  A
O124       Ni131   1.915       .  S
O124        C134   1.280   1_655  A
O125       Ni131   1.918       .  S
O125        C135   1.280   1_655  A
O126       Ni131   1.916   1_554  S
O126        C136   1.282       .  A
O127       Ni132   1.917   1_655  S
O127        C136   1.280       .  A
O128       Ni132   1.915   1_556  S
O128        C135   1.282       .  A
O129       Ni132   1.910   1_556  S
O129        C134   1.280       .  A
O130       Ni132   1.909   1_655  S
O130        C133   1.278       .  A
Ni131      Ni132   2.392   1_656  S
C133        C487   1.458       .  S
C134        C354   1.463       .  S
C135        C407   1.476       .  S
C136        C554   1.472       .  S
O137       Ni145   1.910   1_554  S
O137        C147   1.278       .  A
O138       Ni145   1.913   1_565  S
O138        C148   1.278       .  A
O139       Ni145   1.923   1_565  S
O139        C149   1.283       .  A
O140       Ni145   1.926   1_554  S
O140        C150   1.284       .  A
O141       Ni146   1.912       .  S
O141        C150   1.279   1_565  A
O142       Ni146   1.912   1_556  S
O142        C149   1.279       .  A
O143       Ni146   1.925   1_556  S
O143        C148   1.283       .  A
O144       Ni146   1.924       .  S
O144        C147   1.282   1_565  A
Ni145      Ni146   2.391   1_546  S
C147        C604   1.466       .  S
C148        C324   1.468       .  S
C149        C367   1.474       .  S
C150        C474   1.477       .  S
O151       Ni159   1.921       .  S
O151        C161   1.282       .  A
O152       Ni159   1.916   1_565  S
O152        C162   1.281       .  A
O153       Ni159   1.915   1_565  S
O153        C163   1.279       .  A
O154       Ni159   1.915       .  S
O154        C164   1.280       .  A
O155       Ni160   1.923       .  S
O155        C164   1.282   1_565  A
O156       Ni160   1.921       .  S
O156        C163   1.283       .  A
O157       Ni160   1.914       .  S
O157        C162   1.279       .  A
O158       Ni160   1.909       .  S
O158        C161   1.279   1_565  A
Ni159      Ni160   2.391   1_545  S
C161        C444   1.470       .  S
C162        C277   1.464       .  S
C163        C207   1.476       .  S
C164        C644   1.475       .  S
O165       Ni173   1.915       .  S
O165        C175   1.280       .  A
O166       Ni173   1.921   1_655  S
O166        C176   1.281       .  A
O167       Ni173   1.917   1_655  S
O167        C177   1.281       .  A
O168       Ni173   1.912       .  S
O168        C178   1.280       .  A
O169       Ni174   1.924       .  S
O169        C178   1.282   1_655  A
O170       Ni174   1.920       .  S
O170        C177   1.281       .  A
O171       Ni174   1.916       .  S
O171        C176   1.281       .  A
O172       Ni174   1.915       .  S
O172        C175   1.279   1_655  A
Ni173      Ni174   2.392   1_455  S
C175        C287   1.463       .  S
C176        C437   1.472       .  S
C177        C527   1.472       .  S
C178        C247   1.473       .  S
O179       Ni187   1.917       .  S
O179        C189   1.280       .  A
O180       Ni187   1.920       .  S
O180        C190   1.281       .  A
O181       Ni187   1.918       .  S
O181        C191   1.281       .  A
O182       Ni187   1.927       .  S
O182        C192   1.283       .  A
O183       Ni188   1.912       .  S
O183        C192   1.280       .  A
O184       Ni188   1.921       .  S
O184        C191   1.281       .  A
O185       Ni188   1.922       .  S
O185        C190   1.281       .  A
O186       Ni188   1.913       .  S
O186        C189   1.280       .  A
Ni187      Ni188   2.391       .  S
C189        C194   1.467       .  S
C190        C634   1.472       .  S
C191        C517   1.472       .  S
C192        C237   1.479       .  S
C193        C194   1.400       .  A
C193        C198   1.400       .  A
C193        H200   1.084       .  S
C194        C195   1.403       .  A
C195        C196   1.396       .  A
C195       Br202   1.920       .  S
C196        C197   1.408       .  A
C196        H201   1.084       .  S
C197        C198   1.417       .  A
C198       Br199   1.918       .  S
C203        C204   1.408       .  A
C203        C208   1.403       .  A
C203        H210   1.082       .  S
C204        C205   1.414       .  A
C205        C206   1.394       .  A
C205       Br212   1.917       .  S
C206        C207   1.399       .  A
C206        H211   1.084       .  S
C207        C208   1.411       .  A
C208       Br209   1.918       .  S
C213        C214   1.404   1_545  A
C213        C218   1.406   1_545  A
C213        H220   1.084       .  S
C214        C215   1.402       .  A
C215        C216   1.393       .  A
C215       Br222   1.914       .  S
C216        C217   1.406       .  A
C216        H221   1.084       .  S
C217        C218   1.414       .  A
C218       Br219   1.919       .  S
C223        C224   1.409       .  A
C223        C228   1.409       .  A
C223        H230   1.083       .  S
C224        C225   1.411       .  A
C225        C226   1.386       .  A
C225       Br232   1.917       .  S
C226        C227   1.399       .  A
C226        H231   1.082       .  S
C227        C228   1.413       .  A
C228       Br229   1.917       .  S
C233        C234   1.404       .  A
C233        C238   1.392       .  A
C233        H240   1.084       .  S
C234        C235   1.417       .  A
C235        C236   1.406       .  A
C235       Br242   1.918       .  S
C236        C237   1.405       .  A
C236        H241   1.083       .  S
C237        C238   1.409       .  A
C238       Br239   1.919       .  S
C243        C244   1.411       .  A
C243        C248   1.401       .  A
C243        H250   1.080       .  S
C244        C245   1.414       .  A
C245        C246   1.395       .  A
C245       Br252   1.918       .  S
C246        C247   1.398       .  A
C246        H251   1.081       .  S
C247        C248   1.406       .  A
C248       Br249   1.919   1_455  S
C253        C254   1.408       .  A
C253        C258   1.405       .  A
C253        H260   1.083       .  S
C254        C255   1.408       .  A
C255        C256   1.392   1_455  A
C255       Br262   1.915       .  S
C256        C257   1.401       .  A
C256        H261   1.084       .  S
C257        C258   1.410   1_655  A
C258       Br259   1.916   1_455  S
C263        C264   1.405       .  A
C263        C268   1.411       .  A
C263        H270   1.083       .  S
C264        C265   1.405       .  A
C265        C266   1.386       .  A
C265       Br272   1.917       .  S
C266        C267   1.405       .  A
C266        H271   1.082       .  S
C267        C268   1.419       .  A
C268       Br269   1.916       .  S
C273        C274   1.407       .  A
C273        C278   1.397       .  A
C273        H280   1.080       .  S
C274        C275   1.413       .  A
C275        C276   1.397       .  A
C275       Br282   1.916       .  S
C276        C277   1.398       .  A
C276        H281   1.080       .  S
C277        C278   1.403       .  A
C278       Br279   1.917       .  S
C283        C284   1.404       .  A
C283        C288   1.392       .  A
C283        H290   1.081       .  S
C284        C285   1.414       .  A
C285        C286   1.401       .  A
C285       Br292   1.911       .  S
C286        C287   1.400       .  A
C286        H291   1.084       .  S
C287        C288   1.400       .  A
C288       Br289   1.912       .  S
C293        C294   1.400       .  A
C293        C298   1.393       .  A
C293        H300   1.084       .  S
C294        C295   1.413       .  A
C295        C296   1.402       .  A
C295       Br302   1.916       .  S
C296        C297   1.403   1_455  A
C296        H301   1.083   1_455  S
C297        C298   1.411   1_655  A
C298       Br299   1.919   1_455  S
C303        C304   1.411       .  A
C303        C308   1.392       .  A
C303        H310   1.081       .  S
C304        C305   1.420       .  A
C305        C306   1.404       .  A
C305       Br312   1.915       .  S
C306        C307   1.398       .  A
C306        H311   1.084   1_565  S
C307        C308   1.404       .  A
C308       Br309   1.919       .  S
C313        C314   1.407       .  A
C313        C318   1.390       .  A
C313        H320   1.079       .  S
C314        C315   1.419       .  A
C315        C316   1.409       .  A
C315       Br322   1.915       .  S
C316        C317   1.406       .  A
C316        H321   1.083       .  S
C317        C318   1.410       .  A
C318       Br319   1.924   1_556  S
C323        C324   1.401       .  A
C323        C328   1.399       .  A
C323        H330   1.083       .  S
C324        C325   1.405       .  A
C325        C326   1.397       .  A
C325       Br332   1.913       .  S
C326        C327   1.402       .  A
C326        H331   1.084       .  S
C327        C328   1.411       .  A
C328       Br329   1.918       .  S
C333        C334   1.404       .  A
C333        C338   1.386       .  A
C333        H340   1.084       .  S
C334        C335   1.416       .  A
C335        C336   1.409       .  A
C335       Br342   1.919       .  S
C336        C337   1.405       .  A
C336        H341   1.083       .  S
C337        C338   1.402       .  A
C338       Br339   1.914       .  S
C343        C344   1.402   1_565  A
C343        C348   1.391       .  A
C343        H350   1.082   1_565  S
C344        C345   1.412   1_545  A
C345        C346   1.410       .  A
C345       Br352   1.917   1_565  S
C346        C347   1.411       .  A
C346        H351   1.082       .  S
C347        C348   1.411       .  A
C348       Br349   1.916       .  S
C353        C354   1.400       .  A
C353        C358   1.398       .  A
C353        H360   1.084       .  S
C354        C355   1.406       .  A
C355        C356   1.393       .  A
C355       Br362   1.919   1_556  S
C356        C357   1.401       .  A
C356        H361   1.084       .  S
C357        C358   1.412       .  A
C358       Br359   1.917       .  S
C363        C364   1.407       .  A
C363        C368   1.394       .  A
C363        H370   1.081       .  S
C364        C365   1.415       .  A
C365        C366   1.402       .  A
C365       Br372   1.915       .  S
C366        C367   1.403       .  A
C366        H371   1.084       .  S
C367        C368   1.407       .  A
C368       Br369   1.920       .  S
C373        C374   1.399       .  A
C373        C378   1.384       .  A
C373        H380   1.080       .  S
C374        C375   1.411       .  A
C375        C376   1.409       .  A
C375       Br382   1.916       .  S
C376        C377   1.407       .  A
C376        H381   1.083       .  S
C377        C378   1.409       .  A
C378       Br379   1.921   1_565  S
C383        C384   1.403       .  A
C383        C388   1.395       .  A
C383        H390   1.083       .  S
C384        C385   1.413       .  A
C385        C386   1.402   1_455  A
C385       Br392   1.917       .  S
C386        C387   1.402       .  A
C386        H391   1.084       .  S
C387        C388   1.404   1_655  A
C388       Br389   1.913       .  S
C393        C394   1.401       .  A
C393        C398   1.393       .  A
C393        H400   1.081       .  S
C394        C395   1.416       .  A
C395        C396   1.401       .  A
C395       Br402   1.922       .  S
C396        C397   1.400       .  A
C396        H401   1.084       .  S
C397        C398   1.400       .  A
C398       Br399   1.907       .  S
C403        C404   1.412       .  A
C403        C408   1.399       .  A
C403        H410   1.068       .  S
C404        C405   1.430       .  A
C405        C406   1.398       .  A
C405       Br412   1.912       .  S
C406        C407   1.394       .  A
C406        H411   1.085       .  S
C407        C408   1.404       .  A
C408       Br409   1.921   1_455  S
C413        C414   1.406       .  A
C413        C418   1.390   1_455  A
C413        H420   1.075       .  S
C414        C415   1.412       .  A
C415        C416   1.407       .  A
C415       Br422   1.914       .  S
C416        C417   1.404   1_455  A
C416        H421   1.082       .  S
C417        C418   1.400       .  A
C418       Br419   1.914       .  S
C423        C424   1.398       .  A
C423        C428   1.394       .  A
C423        H430   1.080       .  S
C424        C425   1.406       .  A
C425        C426   1.399       .  A
C425       Br432   1.920       .  S
C426        C427   1.405       .  A
C426        H431   1.077       .  S
C427        C428   1.413       .  A
C428       Br429   1.917       .  S
C433        C434   1.408       .  A
C433        C438   1.403       .  A
C433        H440   1.082       .  S
C434        C435   1.415       .  A
C435        C436   1.395       .  A
C435       Br442   1.919       .  S
C436        C437   1.398       .  A
C436        H441   1.084       .  S
C437        C438   1.409       .  A
C438       Br439   1.918   1_655  S
C443        C444   1.401       .  A
C443        C448   1.399       .  A
C443        H450   1.084       .  S
C444        C445   1.407       .  A
C445        C446   1.396       .  A
C445       Br452   1.919       .  S
C446        C447   1.404       .  A
C446        H451   1.077       .  S
C447        C448   1.412       .  A
C448       Br449   1.918       .  S
C453        C454   1.407       .  A
C453        C458   1.402   1_545  A
C453        H460   1.083       .  S
C454        C455   1.411       .  A
C455        C456   1.399       .  A
C455       Br462   1.917       .  S
C456        C457   1.400   1_545  A
C456        H461   1.083       .  S
C457        C458   1.406       .  A
C458       Br459   1.917       .  S
C463        C464   1.402       .  A
C463        C468   1.390       .  A
C463        H470   1.080       .  S
C464        C465   1.413       .  A
C465        C466   1.408       .  A
C465       Br472   1.915       .  S
C466        C467   1.406       .  A
C466        H471   1.083       .  S
C467        C468   1.408       .  A
C468       Br469   1.917       .  S
C473        C474   1.405       .  A
C473        C478   1.402       .  A
C473        H480   1.082       .  S
C474        C475   1.405       .  A
C475        C476   1.395       .  A
C475       Br482   1.920   1_554  S
C476        C477   1.409       .  A
C476        H481   1.083       .  S
C477        C478   1.415       .  A
C478       Br479   1.918       .  S
C483        C484   1.406       .  A
C483        C488   1.397       .  A
C483        H490   1.083       .  S
C484        C485   1.410       .  A
C485        C486   1.393       .  A
C485       Br492   1.915       .  S
C486        C487   1.396       .  A
C486        H491   1.084       .  S
C487        C488   1.405       .  A
C488       Br489   1.917       .  S
C493        C494   1.402       .  A
C493        C498   1.392       .  A
C493        H500   1.082   1_655  S
C494        C495   1.412       .  A
C495        C496   1.406       .  A
C495       Br502   1.917       .  S
C496        C497   1.408       .  A
C496        H501   1.083       .  S
C497        C498   1.406       .  A
C498       Br499   1.915       .  S
C503        C504   1.404       .  A
C503        C508   1.385       .  A
C503        H510   1.082       .  S
C504        C505   1.416       .  A
C505        C506   1.408   1_545  A
C505       Br512   1.917       .  S
C506        C507   1.405       .  A
C506        H511   1.083       .  S
C507        C508   1.402   1_565  A
C508       Br509   1.915       .  S
C513        C514   1.409       .  A
C513        C518   1.405       .  A
C513        H520   1.083       .  S
C514        C515   1.410       .  A
C515        C516   1.392       .  A
C515       Br522   1.918       .  S
C516        C517   1.396       .  A
C516        H521   1.076       .  S
C517        C518   1.409       .  A
C518       Br519   1.918       .  S
C523        C524   1.404       .  A
C523        C528   1.393       .  A
C523        H530   1.068       .  S
C524        C525   1.419       .  A
C525        C526   1.406       .  A
C525       Br532   1.916       .  S
C526        C527   1.403       .  A
C526        H531   1.084       .  S
C527        C528   1.401       .  A
C528       Br529   1.920       .  S
C533        C534   1.412       .  A
C533        C538   1.385       .  A
C533        H540   1.073       .  S
C534        C535   1.424       .  A
C535        C536   1.413       .  A
C535       Br542   1.918       .  S
C536        C537   1.402       .  A
C536        H541   1.083       .  S
C537        C538   1.403       .  A
C538       Br539   1.923       .  S
C543        C544   1.400       .  A
C543        C548   1.397       .  A
C543        H550   1.084       .  S
C544        C545   1.407       .  A
C545        C546   1.397       .  A
C545       Br552   1.906       .  S
C546        C547   1.403       .  A
C546        H551   1.083       .  S
C547        C548   1.413       .  A
C548       Br549   1.919       .  S
C553        C554   1.399       .  A
C553        C558   1.394       .  A
C553        H560   1.084       .  S
C554        C555   1.408       .  A
C555        C556   1.402       .  A
C555       Br562   1.918       .  S
C556        C557   1.408       .  A
C556        H561   1.082       .  S
C557        C558   1.414       .  A
C558       Br559   1.919       .  S
C563        C564   1.405       .  A
C563        C568   1.396       .  A
C563        H570   1.080       .  S
C564        C565   1.411       .  A
C565        C566   1.401       .  A
C565       Br572   1.915       .  S
C566        C567   1.404       .  A
C566        H571   1.084       .  S
C567        C568   1.406       .  A
C568       Br569   1.921       .  S
C573        C574   1.400       .  A
C573        C578   1.401       .  A
C573        H580   1.082       .  S
C574        C575   1.409       .  A
C575        C576   1.400       .  A
C575       Br582   1.921   1_655  S
C576        C577   1.405       .  A
C576        H581   1.084       .  S
C577        C578   1.420       .  A
C578       Br579   1.927       .  S
C583        C584   1.403       .  A
C583        C588   1.402       .  A
C583        H590   1.083   1_655  S
C584        C585   1.403       .  A
C585        C586   1.393       .  A
C585       Br592   1.906       .  S
C586        C587   1.400       .  A
C586        H591   1.082       .  S
C587        C588   1.409       .  A
C588       Br589   1.916       .  S
C593        C594   1.405       .  A
C593        C598   1.397       .  A
C593        H600   1.075       .  S
C594        C595   1.418       .  A
C595        C596   1.403       .  A
C595       Br602   1.913       .  S
C596        C597   1.400       .  A
C596        H601   1.084       .  S
C597        C598   1.408       .  A
C598       Br599   1.916       .  S
C603        C604   1.402       .  A
C603        C608   1.403       .  A
C603        H610   1.084       .  S
C604        C605   1.402       .  A
C605        C606   1.393       .  A
C605       Br612   1.914       .  S
C606        C607   1.400       .  A
C606        H611   1.076       .  S
C607        C608   1.412       .  A
C608       Br609   1.917       .  S
C613        C614   1.402   1_545  A
C613        C618   1.404       .  A
C613        H620   1.083   1_545  S
C614        C615   1.407   1_565  A
C615        C616   1.396       .  A
C615       Br622   1.921   1_545  S
C616        C617   1.407       .  A
C616        H621   1.079       .  S
C617        C618   1.415       .  A
C618       Br619   1.912       .  S
C623        C624   1.406       .  A
C623        C628   1.392       .  A
C623        H630   1.080       .  S
C624        C625   1.411       .  A
C625        C626   1.404       .  A
C625       Br632   1.912       .  S
C626        C627   1.402       .  A
C626        H631   1.083       .  S
C627        C628   1.402       .  A
C628       Br629   1.915       .  S
C633        C634   1.400       .  A
C633        C638   1.400       .  A
C633        H640   1.080       .  S
C634        C635   1.404       .  A
C635        C636   1.394       .  A
C635       Br642   1.907       .  S
C636        C637   1.403       .  A
C636        H641   1.083       .  S
C637        C638   1.412       .  A
C638       Br639   1.913       .  S
C643        C644   1.404       .  A
C643        C648   1.403       .  A
C643        H650   1.083       .  S
C644        C645   1.408       .  A
C645        C646   1.394       .  A
C645       Br652   1.918       .  S
C646        C647   1.403       .  A
C646        H651   1.084       .  S
C647        C648   1.413       .  A
C648       Br649   1.916       .  S
C653        C654   1.410       .  A
C653        C658   1.410       .  A
C653        H660   1.083       .  S
C654        C655   1.411       .  A
C655        C656   1.387       .  A
C655       Br662   1.917       .  S
C656        C657   1.397       .  A
C656        H661   1.079       .  S
C657        C658   1.411       .  A
C658       Br659   1.916       .  S
C663        C664   1.405       .  A
C663        C668   1.387       .  A
C663        H670   1.083       .  S
C664        C665   1.416       .  A
C665        C666   1.405   1_545  A
C665       Br672   1.918       .  S
C666        C667   1.403       .  A
C666        H671   1.084       .  S
C667        C668   1.401   1_565  A
C668       Br669   1.915       .  S
