geometry optimzed in LAMMPS
_audit_creation_date              2020-11-30 
_audit_creation_method            'lammps2cif' 
_symmetry_space_group_name_H-M    'P1' 
_symmetry_Int_Tables_number       1 
_symmetry_cell_setting            triclinic 
loop_ 
_symmetry_equiv_pos_as_xyz 
  x,y,z 
_cell_length_a                    34.49826396 
_cell_length_b                    34.855688796477715 
_cell_length_c                    59.84749196547313 
_cell_angle_alpha                 91.12593477891808 
_cell_angle_beta                  90.69199503131453 
_cell_angle_gamma                 121.0131733330312 
loop_ 
_atom_site_label 
_atom_site_type_symbol 
_atom_site_fract_x 
_atom_site_fract_y 
_atom_site_fract_z 
_atom_site_charge 
C1          C  0.26833451  0.24925292  0.12924288     0.80100
N2          N  0.26791125  0.28601994  0.13703387    -0.78200
C3          C  0.30260001  0.31755019  0.15012568     0.82600
N4          N  0.33793749  0.31233059  0.15504437    -0.78100
C5          C  0.33882048  0.27594229  0.14757107     0.82700
N6          N  0.30368092  0.24394512  0.13484162    -0.79800
C7          C  0.63808748  0.28644514  0.26000301     0.45400
H8          H  0.63722418  0.28600788  0.27856088    -0.03600
C9          C  0.63944745  0.28729618  0.21632941     0.45400
H10         H  0.64021093  0.28771191  0.19777322    -0.03600
C11         C  0.59452499  0.27911346  0.24883564    -0.17300
C12         C  0.67561191  0.33063130  0.25084588    -0.17100
C13         C  0.64490745  0.25031289  0.24925845    -0.17500
C14         C  0.59512923  0.27958132  0.22594605    -0.17500
C15         C  0.67645498  0.33095014  0.22790630    -0.17000
C16         C  0.64547101  0.25049217  0.22637219    -0.17300
C17         C  0.30297563  0.61933206  0.25665475     0.45400
H18         H  0.30145729  0.62022892  0.27517701    -0.03600
C19         C  0.30746301  0.61683468  0.21312827     0.45400
H20         H  0.30947649  0.61589078  0.19461905    -0.03600
C21         C  0.34804024  0.65604174  0.24748953    -0.17300
C22         C  0.29747400  0.57563914  0.24708832    -0.17100
C23         C  0.26630359  0.62416689  0.24436281    -0.17500
C24         C  0.35039713  0.65480501  0.22467452    -0.17500
C25         C  0.29939256  0.57425189  0.22426622    -0.17000
C26         C  0.26955431  0.62358955  0.22140305    -0.17300
C27         C  0.96999648  0.65935146  0.13701648     0.80100
N28         N  0.01135058  0.66457702  0.14135344    -0.78200
C29         C  0.01480134  0.63481076  0.15418469     0.82600
N30         N  0.97727148  0.60085826  0.16303875    -0.78100
C31         C  0.93603510  0.59562635  0.15936154     0.82700
N32         N  0.93228548  0.62470497  0.14597975    -0.79800
C33         C  0.67771157  0.95466124  0.13324205     0.80100
N34         N  0.64215510  0.91529535  0.14039522    -0.78200
C35         C  0.61063741  0.91580087  0.15374084     0.82600
N36         N  0.61511972  0.95554531  0.15978144    -0.78100
C37         C  0.65029627  0.99464172  0.15317007     0.82700
N38         N  0.68172800  0.99426974  0.13993494    -0.79800
C39         C  0.98256293  0.67469947  0.33853795     0.80100
N40         N  0.94052454  0.63830441  0.33392907    -0.78200
C41         C  0.93589705  0.60310779  0.32137737     0.82600
N42         N  0.97299952  0.60495894  0.31298726    -0.78100
C43         C  0.01487497  0.64112169  0.31689883     0.82700
N44         N  0.01965663  0.67578588  0.32995718    -0.79800
C45         C  0.68192848  0.96360719  0.34005938     0.80100
N46         N  0.64658816  0.92238595  0.33367809    -0.78200
C47         C  0.61053290  0.91864323  0.32224612     0.82600
N48         N  0.61041058  0.95602958  0.31684497    -0.78100
C49         C  0.64551651  0.99727311  0.32260234     0.82700
N50         N  0.68131089  0.00102474  0.33440728    -0.79800
C51         C  0.28514447  0.26748143  0.34546595     0.80100
N52         N  0.32340676  0.26781686  0.33991396    -0.78200
C53         C  0.35553279  0.30112280  0.32779233     0.82600
N54         N  0.34922170  0.33446282  0.32117331    -0.78100
C55         C  0.31113304  0.33455109  0.32623616     0.82700
N56         N  0.27873635  0.30078884  0.33830929    -0.79800
O57         O  0.06089693  0.93250680  0.50855082    -0.81000
O58         O  0.94304149  0.96364534  0.44142120    -0.65700
O59         O  0.02363262  0.97913738  0.48969312    -1.12300
C60         C  0.88662235  0.87311191  0.52393080     1.05900
O61         O  0.90014883  0.97298614  0.46521288    -0.78900
O62         O  0.90667471  0.97399777  0.50959575    -0.66500
Ni63       Ni  0.07554098  0.97467129  0.48510099     1.34900
C64         C  0.94230537  0.99387083  0.52176972     0.84600
O65         O  0.03324858  0.01769625  0.44830270    -0.79400
O66         O  0.09440087  0.01717490  0.46171989    -0.89700
C67         C  0.91087368  0.97028925  0.44531390     0.84200
O68         O  0.05076093  0.92638188  0.46346374    -0.67900
O69         O  0.86637657  0.88335283  0.50934723    -0.87200
C70         C  0.01811090  0.91179050  0.44934283     0.85100
C71         C  0.07554819  0.03163194  0.44859629     1.06600
H72         H  0.92994259  0.89741860  0.47622694     0.38400
O73         O  0.93921587  0.92651572  0.48277924    -1.09800
O74         O  0.97211699  0.98279643  0.52196069    -0.66500
Ni75       Ni  0.97769864  0.93571606  0.50801215     1.26300
O76         O  0.99101850  0.92633851  0.44874355    -0.66700
O77         O  0.92960322  0.89123634  0.52549899    -0.79000
C78         C  0.05130093  0.93767888  0.52842421     0.84400
O79         O  0.01996567  0.94581158  0.53190881    -0.66200
Ni80       Ni  0.88528321  0.92797484  0.48708752     1.27400
Ni81       Ni  0.98506951  0.97158275  0.46489525     1.26100
H82         H  0.03459460  0.00870648  0.49619591     0.39000
O83         O  0.95565992  0.84991105  0.00698945    -0.81000
O84         O  0.99287055  0.99784364  0.94149237    -0.65700
O85         O  0.00607244  0.93458879  0.98930620    -1.12300
C86         C  0.90130169  0.96675841  0.02367133     1.05900
O87         O  0.00643536  0.05187818  0.96576570    -0.78900
O88         O  0.00585171  0.04757444  0.01028835    -0.66500
Ni89       Ni  0.00032280  0.87781351  0.98440103     1.34900
C90         C  0.02337577  0.03164811  0.02300659     0.84600
O91         O  0.04418538  0.96066843  0.94709378    -0.79400
O92         O  0.04439835  0.90140168  0.96140807    -0.89700
C93         C  0.00159072  0.03731695  0.94573361     0.84200
O94         O  0.95303995  0.85361631  0.96237915    -0.67900
O95         O  0.91411242  0.99750769  0.00936186    -0.87200
C96         C  0.93751648  0.87058049  0.94908163     0.85100
C97         C  0.05797579  0.93289477  0.94748285     1.06600
H98         H  0.92584831  0.94684135  0.97628038     0.38400
O99         O  0.95568098  0.96672842  0.98286034    -1.09800
O100        O  0.01047486  0.99024589  0.02284276    -0.66500
Ni101      Ni  0.96233486  0.93723206  0.00768942     1.26300
O102        O  0.95168670  0.91221503  0.94895782    -0.66700
O103        O  0.91749997  0.94103079  0.02513316    -0.79000
C104        C  0.96125736  0.86511145  0.02694650     0.84400
O105        O  0.96978901  0.90461656  0.03097036    -0.66200
Ni106      Ni  0.96009652  0.02285733  0.98745206     1.27400
Ni107      Ni  0.99964594  0.96454658  0.96458279     1.26100
H108        H  0.03580166  0.95393336  0.99584735     0.39000
C109        C  0.98557027  0.24402624  0.62397773     0.80100
N110        N  0.94871326  0.24277414  0.63276941    -0.78200
C111        C  0.95373113  0.27539900  0.64738239     0.82600
N112        N  0.99595734  0.30974488  0.65287826    -0.78100
C113        C  0.03290261  0.31146023  0.64428594     0.82700
N114        N  0.02780044  0.27831184  0.63003238    -0.79800
C115        C  0.99249550  0.24813383  0.83971871     0.80100
N116        N  0.02995507  0.28667967  0.83347390    -0.78200
C117        C  0.02555564  0.31694127  0.82144558     0.82600
N118        N  0.98356807  0.30882261  0.81625690    -0.78100
C119        C  0.94621052  0.27067361  0.82234696     0.82700
N120        N  0.95063339  0.23998849  0.83382356    -0.79800
C121        C  0.65821506  0.27481857  0.71167586     0.45400
H122        H  0.65974487  0.27358168  0.69315775    -0.03600
C123        C  0.65400104  0.27799976  0.75514753     0.45400
H124        H  0.65194638  0.27913374  0.77364587    -0.03600
C125        C  0.69403794  0.26883545  0.72402739    -0.17300
C126        C  0.66520257  0.31932164  0.72109836    -0.17100
C127        C  0.61278154  0.23881482  0.72089228    -0.17500
C128        C  0.69083167  0.26935047  0.74696173    -0.17500
C129        C  0.66360373  0.32124140  0.74396119    -0.17000
C130        C  0.61051578  0.24063402  0.74370069    -0.17300
C131        C  0.32912647  0.61228610  0.71548156     0.45400
H132        H  0.33132686  0.61097864  0.69699492    -0.03600
C133        C  0.32420840  0.61520400  0.75897888     0.45400
H134        H  0.32226354  0.61676922  0.77746603    -0.03600
C135        C  0.32184889  0.64955877  0.72418856    -0.17300
C136        C  0.29012131  0.56930375  0.72495921    -0.17100
C137        C  0.37138699  0.61947032  0.72806103    -0.17500
C138        C  0.31955127  0.65139175  0.74707756    -0.17500
C139        C  0.28727282  0.57096688  0.74788554    -0.17000
C140        C  0.36898053  0.62100847  0.75090598    -0.17300
C141        C  0.27347757  0.93102107  0.63355870     0.80100
N142        N  0.31111732  0.97135013  0.63883739    -0.78200
C143        C  0.34800250  0.97323075  0.64846851     0.82600
N144        N  0.34669352  0.93465797  0.65310269    -0.78100
C145        C  0.30909849  0.89428724  0.64847477     0.82700
N146        N  0.27252274  0.89254163  0.63856731    -0.79800
C147        C  0.68415111  0.63640765  0.62906361     0.80100
N148        N  0.64879751  0.63811160  0.63784584    -0.78200
C149        C  0.61870985  0.60505290  0.65091941     0.82600
N150        N  0.62393191  0.56987708  0.65494207    -0.78100
C151        C  0.65893406  0.56757825  0.64653304     0.82700
N152        N  0.68949026  0.60117827  0.63372782    -0.79800
C153        C  0.70309050  0.65292745  0.83874728     0.80100
N154        N  0.66628709  0.65617013  0.83384083    -0.78200
C155        C  0.63068238  0.62312340  0.82186636     0.82600
N156        N  0.63210483  0.58684901  0.81452431    -0.78100
C157        C  0.66893563  0.58336013  0.81872565     0.82700
N158        N  0.70442333  0.61653082  0.83093579    -0.79800
C159        C  0.28141642  0.94701795  0.83733829     0.80100
N160        N  0.31793682  0.98744270  0.83194480    -0.78200
C161        C  0.35027133  0.98889510  0.81860227     0.82600
N162        N  0.34529857  0.95021594  0.81049159    -0.78100
C163        C  0.30923166  0.90988897  0.81518301     0.82700
N164        N  0.27728453  0.90826495  0.82886584    -0.79800
C165        C  0.56574097  0.70497471  0.78690052    -0.17900
C166        C  0.52883770  0.70448537  0.77659914    -0.20100
C167        C  0.48525865  0.66648292  0.77745029     0.20600
C168        C  0.47855341  0.62903794  0.78934824    -0.03000
C169        C  0.51589899  0.62923535  0.79941580    -0.06100
C170        C  0.55977921  0.66725661  0.79798863     0.20900
C171        C  0.50957300  0.59069039  0.81005730     0.19000
C172        C  0.46578750  0.55326885  0.81159306    -0.17500
C173        C  0.42871180  0.55328886  0.80187064    -0.19800
C174        C  0.43485781  0.59061897  0.79032669     0.20500
C175        C  0.39849701  0.58944747  0.77888464    -0.32800
C176        C  0.40541437  0.62579278  0.76621268     0.01200
C177        C  0.44860992  0.66452643  0.76588045    -0.24100
C178        C  0.59708410  0.66610188  0.80678283    -0.28700
C179        C  0.59112344  0.62681898  0.81612245     0.06900
C180        C  0.54731516  0.58958205  0.81812256    -0.27400
H181        H  0.59916123  0.73442295  0.78565604     0.11600
H182        H  0.53452404  0.73355250  0.76760462     0.12700
H183        H  0.46033631  0.52358417  0.81988528     0.11800
H184        H  0.39537117  0.52362402  0.80286121     0.11000
H185        H  0.36555762  0.55917093  0.77856819     0.16400
H186        H  0.45386232  0.69238840  0.75591068     0.12300
H187        H  0.63096658  0.69472411  0.80515335     0.15200
H188        H  0.54280520  0.55941274  0.82550084     0.15000
C189        C  0.49205355  0.54359628  0.70264096    -0.17900
C190        C  0.45784026  0.54582690  0.71367323    -0.20100
C191        C  0.45005558  0.58077026  0.70957729     0.20600
C192        C  0.47695364  0.61389657  0.69424460    -0.03000
C193        C  0.51166087  0.61175903  0.68318845    -0.06100
C194        C  0.51907243  0.57637504  0.68742448     0.20900
C195        C  0.53893709  0.64497400  0.66797621     0.19000
C196        C  0.53097817  0.67991324  0.66389833    -0.17500
C197        C  0.49628835  0.68188301  0.67476567    -0.19800
C198        C  0.46912288  0.64905855  0.68995826     0.20500
C199        C  0.43432277  0.65068881  0.70098898    -0.32800
C200        C  0.40800966  0.61803607  0.71639265     0.01200
C201        C  0.41575887  0.58308537  0.72052318    -0.24100
C202        C  0.55354970  0.57437568  0.67651003    -0.28700
C203        C  0.58134243  0.60744704  0.66147523     0.06900
C204        C  0.57374061  0.64268964  0.65723234    -0.27400
H205        H  0.49747603  0.51627175  0.70605857     0.11600
H206        H  0.43745187  0.52021292  0.72540617     0.12700
H207        H  0.55157163  0.70571204  0.65229250     0.11800
H208        H  0.49076185  0.70913184  0.67132275     0.11000
H209        H  0.42807859  0.67752041  0.69784284     0.16400
H210        H  0.39471651  0.55749935  0.73215291     0.12300
H211        H  0.55896206  0.54706983  0.68001412     0.15200
H212        H  0.59490262  0.66836069  0.64568114     0.15000
C213        C  0.24577771  0.70789893  0.79809036    -0.17900
C214        C  0.24343214  0.74410418  0.80721004    -0.20100
C215        C  0.27532364  0.78832179  0.80165075     0.20600
C216        C  0.30966711  0.79579112  0.78662164    -0.03000
C217        C  0.31239254  0.75952273  0.77769283    -0.06100
C218        C  0.28028222  0.71523531  0.78338362     0.20900
C219        C  0.34750310  0.76775063  0.76306974     0.19000
C220        C  0.37886500  0.81153435  0.75708085    -0.17500
C221        C  0.37583987  0.84724166  0.76567570    -0.19800
C222        C  0.34167460  0.83965619  0.78054235     0.20500
C223        C  0.33969685  0.87560524  0.78959732    -0.32800
C224        C  0.30676779  0.86928048  0.80515957     0.01200
C225        C  0.27406999  0.82528119  0.81094497    -0.24100
C226        C  0.28316415  0.67938608  0.77396746    -0.28700
C227        C  0.31788174  0.68793188  0.75912798     0.06900
C228        C  0.35052651  0.73209721  0.75438634    -0.27400
H229        H  0.22069661  0.67417052  0.80260916     0.11600
H230        H  0.21669980  0.73750870  0.81863390     0.12700
H231        H  0.40566917  0.81814660  0.74569019     0.11800
H232        H  0.40052990  0.88089760  0.76085455     0.11000
H233        H  0.36481738  0.90897662  0.78460021     0.16400
H234        H  0.24834446  0.81988268  0.82279526     0.12300
H235        H  0.25802800  0.64510596  0.77764440     0.15200
H236        H  0.37788837  0.73858927  0.74339221     0.15000
C237        C  0.39082757  0.77969601  0.67552384    -0.17900
C238        C  0.38924555  0.81452006  0.66516177    -0.20100
C239        C  0.34918747  0.81572317  0.66478086     0.20600
C240        C  0.31003588  0.78100354  0.67451668    -0.03000
C241        C  0.31185596  0.74626964  0.68533178    -0.06100
C242        C  0.35252986  0.74575868  0.68590174     0.20900
C243        C  0.27341913  0.71287923  0.69616361     0.19000
C244        C  0.23311055  0.71357549  0.69536059    -0.17500
C245        C  0.23106963  0.74753080  0.68428572    -0.19800
C246        C  0.26946881  0.78172769  0.67406719     0.20500
C247        C  0.26849802  0.81746734  0.66414924    -0.32800
C248        C  0.30799112  0.85323028  0.65541677     0.01200
C249        C  0.34799914  0.85175684  0.65549000    -0.24100
C250        C  0.35462404  0.71224541  0.69750430    -0.28700
C251        C  0.31712701  0.68025034  0.70912811     0.06900
C252        C  0.27642706  0.68024011  0.70815025    -0.27400
H253        H  0.42230273  0.77981652  0.67582694     0.11600
H254        H  0.41955367  0.84085052  0.65768986     0.12700
H255        H  0.20327213  0.68812515  0.70353128     0.11800
H256        H  0.19968501  0.74757612  0.68413287     0.11000
H257        H  0.23774174  0.81870835  0.66435255     0.16400
H258        H  0.37850709  0.87920989  0.64870265     0.12300
H259        H  0.38613221  0.71260242  0.69861642     0.15200
H260        H  0.24757174  0.65545921  0.71720454     0.15000
C261        C  0.74698256  0.47196512  0.69139800    -0.17900
C262        C  0.74644930  0.50658671  0.68017782    -0.20100
C263        C  0.70616803  0.49986542  0.67036153     0.20600
C264        C  0.66626140  0.45734394  0.67134151    -0.03000
C265        C  0.66692849  0.42224856  0.68240309    -0.06100
C266        C  0.70733761  0.42987041  0.69283168     0.20900
C267        C  0.62682642  0.37997905  0.68363492     0.19000
C268        C  0.58666973  0.37298810  0.67356205    -0.17500
C269        C  0.58585017  0.40794675  0.66293360    -0.19800
C270        C  0.62529108  0.45032037  0.66199205     0.20500
C271        C  0.62406194  0.48625083  0.65268762    -0.32800
C272        C  0.66329935  0.52900550  0.65229097     0.01200
C273        C  0.70458519  0.53534481  0.66047460    -0.24100
C274        C  0.70701098  0.39564347  0.70499772    -0.28700
C275        C  0.66694490  0.35396738  0.70659414     0.06900
C276        C  0.62728736  0.34592185  0.69551101    -0.27400
H277        H  0.77830397  0.47831828  0.69923726     0.11600
H278        H  0.77735964  0.53895758  0.67961719     0.12700
H279        H  0.55564792  0.34074719  0.67433722     0.11800
H280        H  0.55417526  0.40203586  0.65575544     0.11000
H281        H  0.59216400  0.48139398  0.64639925     0.16400
H282        H  0.73468612  0.56846070  0.66047541     0.12300
H283        H  0.73755732  0.40153405  0.71356446     0.15200
H284        H  0.59642401  0.31368302  0.69691752     0.15000
C285        C  0.58608374  0.42842371  0.78797598    -0.17900
C286        C  0.58520223  0.39177722  0.77751494    -0.20100
C287        C  0.62564579  0.39328163  0.77276607     0.20600
C288        C  0.66750507  0.43194197  0.77887501    -0.03000
C289        C  0.66837337  0.46892373  0.78959021    -0.06100
C290        C  0.62742253  0.46716131  0.79394591     0.20900
C291        C  0.71008025  0.50776756  0.79566826     0.19000
C292        C  0.75055816  0.50903764  0.79101370    -0.17500
C293        C  0.74972479  0.47246360  0.78026418    -0.19800
C294        C  0.70839957  0.43382140  0.77404058     0.20500
C295        C  0.70707109  0.39720609  0.76288037    -0.32800
C296        C  0.66538490  0.35900327  0.75662239     0.01200
C297        C  0.62491344  0.35701360  0.76177002    -0.24100
C298        C  0.62833743  0.50433999  0.80388391    -0.28700
C299        C  0.66958259  0.54357201  0.80974557     0.06900
C300        C  0.71044988  0.54478199  0.80590876    -0.27400
H301        H  0.55435579  0.42657610  0.79126598     0.11600
H302        H  0.55284049  0.36236349  0.77295706     0.12700
H303        H  0.78291693  0.53850045  0.79551337     0.11800
H304        H  0.78144763  0.47449921  0.77671549     0.11000
H305        H  0.73825397  0.39845665  0.75885271     0.16400
H306        H  0.59290250  0.32744947  0.75682587     0.12300
H307        H  0.59663378  0.50275810  0.80692289     0.15200
H308        H  0.74243191  0.57487364  0.81025349     0.15000
C309        C  0.45763738  0.16552567  0.68934408    -0.17900
C310        C  0.42045572  0.12844993  0.67875222    -0.20100
C311        C  0.42390313  0.09228094  0.67066472     0.20600
C312        C  0.46566209  0.09408125  0.67269927    -0.03000
C313        C  0.50325310  0.13160620  0.68322965    -0.06100
C314        C  0.49893291  0.16714330  0.69191199     0.20900
C315        C  0.54468216  0.13286528  0.68574257     0.19000
C316        C  0.54843942  0.09714185  0.67726925    -0.17500
C317        C  0.51108968  0.05982349  0.66696546    -0.19800
C318        C  0.46945679  0.05772167  0.66492545     0.20500
C319        C  0.43114143  0.01919037  0.65603778    -0.32800
C320        C  0.38902817  0.01643498  0.65475606     0.01200
C321        C  0.38592961  0.05363022  0.66141159    -0.24100
C322        C  0.53557269  0.20298500  0.70357846    -0.28700
C323        C  0.57625464  0.20362464  0.70658236     0.06900
C324        C  0.58109822  0.16914369  0.69731655    -0.27400
H325        H  0.45387648  0.19262250  0.69586216     0.11600
H326        H  0.38870270  0.12763988  0.67731890     0.12700
H327        H  0.58001208  0.09766561  0.67901279     0.11800
H328        H  0.51452657  0.03220533  0.66097766     0.11000
H329        H  0.43380691  0.99075329  0.65067322     0.16400
H330        H  0.35350543  0.05158719  0.66052452     0.12300
H331        H  0.53225757  0.22989950  0.71080254     0.15200
H332        H  0.61252905  0.16970953  0.69996386     0.15000
C333        C  0.46075108  0.17714931  0.77825867    -0.17900
C334        C  0.42480159  0.14269833  0.78969086    -0.20100
C335        C  0.42669155  0.10535421  0.79649685     0.20600
C336        C  0.46573761  0.10325278  0.79203143    -0.03000
C337        C  0.50197412  0.13795945  0.78050628    -0.06100
C338        C  0.49931336  0.17495781  0.77342961     0.20900
C339        C  0.54051674  0.13521722  0.77572615     0.19000
C340        C  0.54278299  0.09824244  0.78271442    -0.17500
C341        C  0.50686717  0.06384009  0.79402450    -0.19800
C342        C  0.46814157  0.06589725  0.79855398     0.20500
C343        C  0.43111369  0.03037640  0.80872715    -0.32800
C344        C  0.39122605  0.03108199  0.81235010     0.01200
C345        C  0.38966692  0.06930362  0.80685878    -0.24100
C346        C  0.53506392  0.20877216  0.76148020    -0.28700
C347        C  0.57310066  0.20574923  0.75657208     0.06900
C348        C  0.57587549  0.16923996  0.76383138    -0.27400
H349        H  0.45818979  0.20534108  0.77299106     0.11600
H350        H  0.39520735  0.14497193  0.79292529     0.12700
H351        H  0.57212903  0.09568480  0.77920734     0.11800
H352        H  0.50910236  0.03527322  0.79895057     0.11000
H353        H  0.43264815  0.00110022  0.81305467     0.16400
H354        H  0.35889169  0.06983656  0.80940848     0.12300
H355        H  0.53328879  0.23721218  0.75584956     0.15200
H356        H  0.60545069  0.16724432  0.75998150     0.15000
C357        C  0.76819373  0.18848548  0.76698449    -0.17900
C358        C  0.80448749  0.18862284  0.77777408    -0.20100
C359        C  0.83285165  0.22351190  0.79294701     0.20600
C360        C  0.82341454  0.25761837  0.79799615    -0.03000
C361        C  0.78648084  0.25714198  0.78735631    -0.06100
C362        C  0.75949798  0.22304048  0.77134347     0.20900
C363        C  0.77796484  0.29202754  0.79193436     0.19000
C364        C  0.80531189  0.32604775  0.80767466    -0.17500
C365        C  0.84232719  0.32689887  0.81795517    -0.19800
C366        C  0.85218644  0.29343312  0.81284631     0.20500
C367        C  0.89139730  0.29621333  0.82155006    -0.32800
C368        C  0.90160672  0.26316892  0.81603880     0.01200
C369        C  0.87165640  0.22613149  0.80235764    -0.24100
C370        C  0.72590930  0.22547772  0.75917217    -0.28700
C371        C  0.71956353  0.26186527  0.76266333     0.06900
C372        C  0.74398828  0.29373000  0.77976664    -0.27400
H373        H  0.74763516  0.16197116  0.75480418     0.11600
H374        H  0.81118145  0.16216285  0.77374703     0.12700
H375        H  0.79902316  0.35287071  0.81145079     0.11800
H376        H  0.86390557  0.35434675  0.82949342     0.11000
H377        H  0.91478170  0.32476483  0.83211638     0.16400
H378        H  0.88006791  0.20099225  0.79796068     0.12300
H379        H  0.70628013  0.20045895  0.74617579     0.15200
H380        H  0.73879624  0.32161276  0.78244711     0.15000
C381        C  0.19112351  0.42636888  0.81906972    -0.17900
C382        C  0.22774983  0.46264579  0.80892787    -0.20100
C383        C  0.22056765  0.48273243  0.79047422     0.20600
C384        C  0.17603173  0.46659934  0.78241591    -0.03000
C385        C  0.13920710  0.43037841  0.79272213    -0.06100
C386        C  0.14668969  0.40976642  0.81101087     0.20900
C387        C  0.09488903  0.41448664  0.78449311     0.19000
C388        C  0.08755179  0.43465769  0.76619078    -0.17500
C389        C  0.12398415  0.47033239  0.75593192    -0.19800
C390        C  0.16821989  0.48638544  0.76387918     0.20500
C391        C  0.20477690  0.52142583  0.75332068    -0.32800
C392        C  0.24920587  0.53637805  0.76060089     0.01200
C393        C  0.25699304  0.51801365  0.77960696    -0.24100
C394        C  0.10959981  0.37274720  0.82068108    -0.28700
C395        C  0.06530981  0.35679866  0.81239474     0.06900
C396        C  0.05848407  0.37827140  0.79445428    -0.27400
H397        H  0.19757239  0.41114409  0.83313095     0.11600
H398        H  0.26172929  0.47465209  0.81534981     0.12700
H399        H  0.05360936  0.42260139  0.75969702     0.11800
H400        H  0.11759065  0.48515742  0.74167061     0.11000
H401        H  0.19875319  0.53671461  0.73913215     0.16400
H402        H  0.29122173  0.53024158  0.78553604     0.12300
H403        H  0.11515864  0.35644107  0.83454294     0.15200
H404        H  0.02465827  0.36613515  0.78774781     0.15000
C405        C  0.85646733  0.32240802  0.71911245    -0.17900
C406        C  0.89256123  0.32295260  0.70855104    -0.20100
C407        C  0.88501714  0.29691398  0.68901934     0.20600
C408        C  0.84061465  0.26914131  0.68029293    -0.03000
C409        C  0.80406942  0.26845148  0.69103436    -0.06100
C410        C  0.81228813  0.29571037  0.71033503     0.20900
C411        C  0.75952698  0.24112648  0.68230735     0.19000
C412        C  0.75202651  0.21429571  0.66302527    -0.17500
C413        C  0.78835113  0.21500324  0.65234033    -0.19800
C414        C  0.83283940  0.24252604  0.66075467     0.20500
C415        C  0.86973919  0.24427748  0.64995898    -0.32800
C416        C  0.91421531  0.27268356  0.65841701     0.01200
C417        C  0.92130465  0.29857483  0.67803035    -0.24100
C418        C  0.77630576  0.29618079  0.72048858    -0.28700
C419        C  0.73167387  0.26844884  0.71230268     0.06900
C420        C  0.72349088  0.24132548  0.69301765    -0.27400
H421        H  0.86313775  0.34309529  0.73408426     0.11600
H422        H  0.92647236  0.34411867  0.71553779     0.12700
H423        H  0.71808024  0.19295375  0.65612448     0.11800
H424        H  0.78166541  0.19421917  0.63740859     0.11000
H425        H  0.86390583  0.22404587  0.63489395     0.16400
H426        H  0.95525634  0.32005510  0.68492656     0.12300
H427        H  0.78312614  0.31846002  0.73481318     0.15200
H428        H  0.68921652  0.22026459  0.68648377     0.15000
C429        C  0.17802634  0.50924686  0.66264335    -0.17900
C430        C  0.14197043  0.47287924  0.65104600    -0.20100
C431        C  0.12927021  0.42887765  0.65619638     0.20600
C432        C  0.15392730  0.42138230  0.67276575    -0.03000
C433        C  0.18995976  0.45808949  0.68467027    -0.06100
C434        C  0.20174338  0.50219968  0.67969710     0.20900
C435        C  0.21316708  0.45060236  0.70202356     0.19000
C436        C  0.20110560  0.40660257  0.70682294    -0.17500
C437        C  0.16561493  0.37021304  0.69490171    -0.19800
C438        C  0.14141627  0.37719796  0.67806404     0.20500
C439        C  0.10365043  0.34087556  0.66716093    -0.32800
C440        C  0.07780964  0.34839043  0.65152891     0.01200
C441        C  0.09112491  0.39226071  0.64580792    -0.24100
C442        C  0.23598759  0.53839076  0.69235218    -0.28700
C443        C  0.25783193  0.53099645  0.71021258     0.06900
C444        C  0.24706874  0.48717404  0.71467206    -0.27400
H445        H  0.18671521  0.54289413  0.65861159     0.11600
H446        H  0.12347392  0.47916041  0.63831877     0.12700
H447        H  0.21863957  0.40029592  0.72005913     0.11800
H448        H  0.15643329  0.33654976  0.69919681     0.11000
H449        H  0.09264801  0.30690802  0.67182170     0.16400
H450        H  0.07064350  0.39780705  0.63392461     0.12300
H451        H  0.24425503  0.57222185  0.68899822     0.15200
H452        H  0.26437553  0.48161701  0.72832970     0.15000
C453        C  0.80315498  0.82516268  0.89955599    -0.17900
C454        C  0.77073705  0.79476086  0.88391767    -0.20100
C455        C  0.77194223  0.75702047  0.87625469     0.20600
C456        C  0.80623632  0.74995807  0.88434887    -0.03000
C457        C  0.83864980  0.78036132  0.90025601    -0.06100
C458        C  0.83721658  0.81823928  0.90789843     0.20900
C459        C  0.87233001  0.77262647  0.90859733     0.19000
C460        C  0.87396105  0.73530332  0.90078757    -0.17500
C461        C  0.84206983  0.70539765  0.88495411    -0.19800
C462        C  0.80792589  0.71224171  0.87673944     0.20500
C463        C  0.77506309  0.68155998  0.86133701    -0.32800
C464        C  0.74002793  0.68762343  0.85353183     0.01200
C465        C  0.73910887  0.72586895  0.86091208    -0.24100
C466        C  0.86974277  0.84824602  0.92378405    -0.28700
C467        C  0.90283891  0.84003243  0.93239163     0.06900
C468        C  0.90382761  0.80222360  0.92465974    -0.27400
H469        H  0.80141554  0.85394358  0.90522229     0.11600
H470        H  0.74459375  0.80068634  0.87787188     0.12700
H471        H  0.89983097  0.72912795  0.90700332     0.11800
H472        H  0.84388126  0.67666758  0.87927304     0.11000
H473        H  0.77624293  0.65236259  0.85585910     0.16400
H474        H  0.71244903  0.73115832  0.85500107     0.12300
H475        H  0.86892228  0.87742349  0.92968460     0.15200
H476        H  0.92974046  0.79613300  0.93094838     0.15000
C477        C  0.21392406  0.02109607  0.87990989    -0.17900
C478        C  0.18256347  0.01921860  0.89517924    -0.20100
C479        C  0.15170820  0.97863905  0.90493829     0.20600
C480        C  0.15236856  0.93950837  0.89909830    -0.03000
C481        C  0.18369056  0.94131253  0.88351762    -0.06100
C482        C  0.21481972  0.98236821  0.87398939     0.20900
C483        C  0.18400472  0.90207461  0.87760199     0.19000
C484        C  0.15310784  0.86144413  0.88728387    -0.17500
C485        C  0.12239281  0.85972966  0.90284269    -0.19800
C486        C  0.12189125  0.89856878  0.90889853     0.20500
C487        C  0.09153455  0.89712452  0.92466009    -0.32800
C488        C  0.09059161  0.93589608  0.93067428     0.01200
C489        C  0.12045801  0.97650446  0.92052363    -0.24100
C490        C  0.24643125  0.98402223  0.85882938    -0.28700
C491        C  0.24711842  0.94504396  0.85287745     0.06900
C492        C  0.21541742  0.90414028  0.86226497    -0.27400
H493        H  0.23754638  0.05290838  0.87273847     0.11600
H494        H  0.18263369  0.04960283  0.89945810     0.12700
H495        H  0.15288188  0.83100738  0.88292517     0.11800
H496        H  0.09906757  0.82800120  0.91018557     0.11000
H497        H  0.06820434  0.86550463  0.93212334     0.16400
H498        H  0.11993811  0.00650005  0.92505103     0.12300
H499        H  0.27047343  0.01571047  0.85167155     0.15200
H500        H  0.21559897  0.87388490  0.85795291     0.15000
C501        C  0.93024638  0.09479834  0.86635026    -0.17900
C502        C  0.93237261  0.06486874  0.88079336    -0.20100
C503        C  0.96874494  0.07986400  0.89612869     0.20600
C504        C  0.00366833  0.12534911  0.89674563    -0.03000
C505        C  0.00197788  0.15532521  0.88186861    -0.06100
C506        C  0.96475788  0.14005627  0.86682762     0.20900
C507        C  0.03704059  0.20072569  0.88237135     0.19000
C508        C  0.07334475  0.21575505  0.89776184    -0.17500
C509        C  0.07447503  0.18625860  0.91288354    -0.19800
C510        C  0.03970492  0.14111385  0.91258672     0.20500
C511        C  0.03966776  0.11167030  0.92819884    -0.32800
C512        C  0.00490652  0.06649131  0.92763893     0.01200
C513        C  0.97012807  0.05049951  0.91131609    -0.24100
C514        C  0.96229463  0.17048091  0.85282348    -0.28700
C515        C  0.99692919  0.21580219  0.85337328     0.06900
C516        C  0.03462745  0.23051878  0.86785871    -0.27400
H517        H  0.90147356  0.08259391  0.85488368     0.11600
H518        H  0.90519893  0.03012715  0.88021466     0.12700
H519        H  0.10047281  0.25051597  0.89836818     0.11800
H520        H  0.10241405  0.19881343  0.92490129     0.11000
H521        H  0.06627443  0.12389392  0.94097920     0.16400
H522        H  0.94287666  0.01576555  0.91127075     0.12300
H523        H  0.93329547  0.15892682  0.84155349     0.15200
H524        H  0.06123537  0.26551757  0.86846154     0.15000
C525        C  0.82484237  0.71143538  0.58555640    -0.17900
C526        C  0.85341832  0.74482530  0.57101636    -0.20100
C527        C  0.84222261  0.77564922  0.56311281     0.20600
C528        C  0.80181224  0.77279679  0.56997613    -0.03000
C529        C  0.77328483  0.73946651  0.58484309    -0.06100
C530        C  0.78471769  0.70846803  0.59258741     0.20900
C531        C  0.73322134  0.73706360  0.59184776     0.19000
C532        C  0.72188171  0.76775753  0.58392587    -0.17500
C533        C  0.74983565  0.80041382  0.56901129    -0.19800
C534        C  0.78975447  0.80311774  0.56191750     0.20500
C535        C  0.81771861  0.83554110  0.54684783    -0.32800
C536        C  0.85812986  0.83879417  0.54001013     0.01200
C537        C  0.87048428  0.80906556  0.54837562    -0.24100
C538        C  0.75573096  0.67496209  0.60711240    -0.28700
C539        C  0.71561700  0.67229849  0.61415100     0.06900
C540        C  0.70493229  0.70381541  0.60650901    -0.27400
H541        H  0.83415752  0.68792072  0.59131833     0.11600
H542        H  0.88419779  0.74640312  0.56586624     0.12700
H543        H  0.69121190  0.76632575  0.58915884     0.11800
H544        H  0.74021584  0.82356060  0.56301339     0.11000
H545        H  0.80828555  0.85869309  0.54060116     0.16400
H546        H  0.90150487  0.81134543  0.54303151     0.12300
H547        H  0.76445323  0.65103225  0.61292016     0.15200
H548        H  0.67411960  0.70217336  0.61167935     0.15000
C549        C  0.88745845  0.11204755  0.57493834    -0.17900
C550        C  0.88147543  0.07729245  0.56049794    -0.20100
C551        C  0.91822973  0.07228074  0.55533905     0.20600
C552        C  0.96150470  0.10274606  0.56465245    -0.03000
C553        C  0.96759786  0.13799280  0.57909466    -0.06100
C554        C  0.93033140  0.14246543  0.58434824     0.20900
C555        C  0.01089947  0.16855574  0.58836475     0.19000
C556        C  0.04767752  0.16365245  0.58309716    -0.17500
C557        C  0.04158647  0.12855050  0.56888288    -0.19800
C558        C  0.99864584  0.09785260  0.55966304     0.20500
C559        C  0.99217359  0.06221494  0.54566380    -0.32800
C560        C  0.94911050  0.03158690  0.53641539     0.01200
C561        C  0.91238552  0.03712440  0.54118185    -0.24100
C562        C  0.93652566  0.17716819  0.59897230    -0.28700
C563        C  0.97957951  0.20779378  0.60833288     0.06900
C564        C  0.01664414  0.20333804  0.60282821    -0.27400
H565        H  0.85852400  0.11509125  0.57878086     0.11600
H566        H  0.84803622  0.05416520  0.55346838     0.12700
H567        H  0.08114468  0.18685597  0.59006510     0.11800
H568        H  0.07045653  0.12532220  0.56515986     0.11000
H569        H  0.02072493  0.05845482  0.54189263     0.16400
H570        H  0.87902060  0.01364781  0.53415294     0.12300
H571        H  0.90773679  0.18036599  0.60297889     0.15200
H572        H  0.04992494  0.22658916  0.60999892     0.15000
C573        C  0.17375935  0.99027181  0.61413365    -0.17900
C574        C  0.14122106  0.99023511  0.59978070    -0.20100
C575        C  0.12258373  0.95963867  0.58150568     0.20600
C576        C  0.13616813  0.92806201  0.57810202    -0.03000
C577        C  0.16844639  0.92768990  0.59273538    -0.06100
C578        C  0.18799606  0.95944893  0.61062020     0.20900
C579        C  0.18199653  0.89619116  0.58906612     0.19000
C580        C  0.16335530  0.86547084  0.57094514    -0.17500
C581        C  0.13203855  0.86629958  0.55630278    -0.19800
C582        C  0.11852766  0.89758877  0.55965134     0.20500
C583        C  0.08889722  0.89981214  0.54434219    -0.32800
C584        C  0.07614648  0.93184480  0.54708875     0.01200
C585        C  0.09200602  0.96096589  0.56607541    -0.24100
C586        C  0.22202813  0.96027384  0.62428226    -0.28700
C587        C  0.23562095  0.92889328  0.62056193     0.06900
C588        C  0.21480013  0.89654823  0.60320034    -0.27400
H589        H  0.18815434  0.01474764  0.62784695     0.11600
H590        H  0.13129724  0.01472960  0.60272433     0.12700
H591        H  0.17358109  0.84124163  0.56787005     0.11800
H592        H  0.11876096  0.84275792  0.54217467     0.11000
H593        H  0.07663619  0.87727275  0.52978813     0.16400
H594        H  0.08265096  0.98610885  0.56811960     0.12300
H595        H  0.23802460  0.98527793  0.63770202     0.15200
H596        H  0.22559215  0.87273779  0.60008067     0.15000
C597        C  0.21172893  0.10026039  0.40329897    -0.17900
C598        C  0.24058740  0.13277320  0.38860779    -0.20100
C599        C  0.23110590  0.16503618  0.38113137     0.20600
C600        C  0.19203098  0.16442885  0.38830177    -0.03000
C601        C  0.16272451  0.13141932  0.40304845    -0.06100
C602        C  0.17288337  0.09943857  0.41064728     0.20900
C603        C  0.12347432  0.13054860  0.41026650     0.19000
C604        C  0.11408622  0.16287470  0.40271848    -0.17500
C605        C  0.14334802  0.19582208  0.38817192    -0.19800
C606        C  0.18244602  0.19694615  0.38088394     0.20500
C607        C  0.21239919  0.23024128  0.36654251    -0.32800
C608        C  0.25178760  0.23133636  0.35958235     0.01200
C609        C  0.26043955  0.19818979  0.36681186    -0.24100
C610        C  0.14412260  0.06720365  0.42551799    -0.28700
C611        C  0.10488734  0.06592737  0.43274679     0.06900
C612        C  0.09451530  0.09749321  0.42495916    -0.27400
H613        H  0.21985148  0.07581499  0.40895999     0.11600
H614        H  0.27050830  0.13287178  0.38320644     0.12700
H615        H  0.08417857  0.16277619  0.40812974     0.11800
H616        H  0.13545402  0.22051419  0.38266930     0.11000
H617        H  0.20531159  0.25551242  0.36106403     0.16400
H618        H  0.29051145  0.19838524  0.36158381     0.12300
H619        H  0.15207312  0.04269146  0.43131497     0.15200
H620        H  0.06442403  0.09677545  0.43062533     0.15000
C621        C  0.77440762  0.90135980  0.36585999    -0.17900
C622        C  0.80805999  0.90338060  0.37998323    -0.20100
C623        C  0.83159024  0.93919027  0.39547272     0.20600
C624        C  0.82142017  0.97358842  0.39658874    -0.03000
C625        C  0.78803397  0.97195805  0.38204878    -0.06100
C626        C  0.76409779  0.93539737  0.36679114     0.20900
C627        C  0.77803833  0.00645302  0.38307595     0.19000
C628        C  0.80123641  0.04204473  0.39873019    -0.17500
C629        C  0.83359074  0.04314065  0.41348409    -0.19800
C630        C  0.84377342  0.00900934  0.41260639     0.20500
C631        C  0.87483135  0.00887176  0.42789958    -0.32800
C632        C  0.88470760  0.97448802  0.42696424     0.01200
C633        C  0.86392802  0.94039236  0.41039551    -0.24100
C634        C  0.72984465  0.93317715  0.35295852    -0.28700
C635        C  0.71971507  0.96743218  0.35385580     0.06900
C636        C  0.74442738  0.00429780  0.36874086    -0.27400
H637        H  0.75629809  0.87304459  0.35425442     0.11600
H638        H  0.81520135  0.87655276  0.37902614     0.12700
H639        H  0.79386609  0.06871008  0.39979107     0.11800
H640        H  0.85046164  0.07056041  0.42568078     0.11000
H641        H  0.89062087  0.03491269  0.44087622     0.16400
H642        H  0.87087574  0.91337979  0.41004532     0.12300
H643        H  0.71104204  0.90474730  0.34147005     0.15200
H644        H  0.73647356  0.03058448  0.36970279     0.15000
C645        C  0.91980369  0.75775218  0.37741531    -0.17900
C646        C  0.92472609  0.79072950  0.39294316    -0.20100
C647        C  0.96618673  0.81830436  0.40439145     0.20600
C648        C  0.00332226  0.81318438  0.39972324    -0.03000
C649        C  0.99853728  0.78033765  0.38379476    -0.06100
C650        C  0.95637121  0.75196672  0.37285668     0.20900
C651        C  0.03578537  0.77545490  0.37910355     0.19000
C652        C  0.07752194  0.80366307  0.39016018    -0.17500
C653        C  0.08210100  0.83574350  0.40610303    -0.19800
C654        C  0.04513125  0.84049661  0.41115243     0.20500
C655        C  0.04926265  0.87193537  0.42750077    -0.32800
C656        C  0.01240481  0.87723355  0.43241901     0.01200
C657        C  0.97107733  0.85059086  0.42052604    -0.24100
C658        C  0.95137201  0.71791799  0.35786572    -0.28700
C659        C  0.98821429  0.71224477  0.35339123     0.06900
C660        C  0.03052165  0.74190726  0.36380287    -0.27400
H661        H  0.88723826  0.73652437  0.36908131     0.11600
H662        H  0.89588193  0.79427198  0.39621035     0.12700
H663        H  0.10652027  0.80048441  0.38670879     0.11800
H664        H  0.11455025  0.85667885  0.41459871     0.11000
H665        H  0.08150976  0.89275696  0.43621527     0.16400
H666        H  0.94254896  0.85453788  0.42404129     0.12300
H667        H  0.91873347  0.69569799  0.34979051     0.15200
H668        H  0.05918937  0.73804129  0.36055941     0.15000
C669        C  0.82478731  0.03483189  0.06163395    -0.17900
C670        C  0.79439744  0.03358274  0.07719810    -0.20100
C671        C  0.76799269  0.99493072  0.08938143     0.20600
C672        C  0.77193666  0.95698121  0.08575689    -0.03000
C673        C  0.80305646  0.95840175  0.07015547    -0.06100
C674        C  0.82950954  0.99756860  0.05811710     0.20900
C675        C  0.80796797  0.92091901  0.06673847     0.19000
C676        C  0.78083878  0.88199377  0.07869346    -0.17500
C677        C  0.74957085  0.88040995  0.09400232    -0.19800
C678        C  0.74500689  0.91781348  0.09777093     0.20500
C679        C  0.71415659  0.91688997  0.11331566    -0.32800
C680        C  0.71046592  0.95493136  0.11718101     0.01200
C681        C  0.73771802  0.99374730  0.10509728    -0.24100
C682        C  0.86066395  0.99918781  0.04290310    -0.28700
C683        C  0.86666980  0.96250561  0.03957940     0.06900
C684        C  0.84008647  0.92328834  0.05157063    -0.27400
H685        H  0.84488536  0.06512029  0.05245960     0.11600
H686        H  0.79159191  0.06291899  0.07973164     0.12700
H687        H  0.78387785  0.85277863  0.07625237     0.11800
H688        H  0.72914426  0.84998033  0.10301148     0.11000
H689        H  0.69335914  0.88677518  0.12249486     0.16400
H690        H  0.73498366  0.02313120  0.10764950     0.12300
H691        H  0.88104898  0.02971728  0.03393059     0.15200
H692        H  0.84421613  0.89473108  0.04903198     0.15000
C693        C  0.02947915  0.84014421  0.09333851    -0.17900
C694        C  0.03172748  0.81086981  0.10820396    -0.20100
C695        C  0.99812398  0.76528681  0.10760822     0.20600
C696        C  0.96186476  0.74892316  0.09187581    -0.03000
C697        C  0.96009755  0.77828099  0.07657327    -0.06100
C698        C  0.99392288  0.82418547  0.07743634     0.20900
C699        C  0.92496004  0.76157160  0.06018292     0.19000
C700        C  0.89134288  0.71596967  0.05959098    -0.17500
C701        C  0.89250953  0.68705814  0.07511030    -0.19800
C702        C  0.92769605  0.70315465  0.09125176     0.20500
C703        C  0.92970953  0.67424661  0.10658405    -0.32800
C704        C  0.96622975  0.69028681  0.12198068     0.01200
C705        C  0.00036348  0.73572433  0.12234445    -0.24100
C706        C  0.99224812  0.85307031  0.06200056    -0.28700
C707        C  0.95827273  0.83625802  0.04521151     0.06900
C708        C  0.92467832  0.79059955  0.04438849    -0.27400
H709        H  0.05586135  0.87519563  0.09410518     0.11600
H710        H  0.05977340  0.82389553  0.12018342     0.12700
H711        H  0.86416891  0.70264754  0.04709973     0.11800
H712        H  0.86615570  0.65199599  0.07433088     0.11000
H713        H  0.90368483  0.63903120  0.10609063     0.16400
H714        H  0.02851229  0.74809457  0.13424639     0.12300
H715        H  0.01866844  0.88814890  0.06228495     0.15200
H716        H  0.89868070  0.77768303  0.03127269     0.15000
C717        C  0.13387841  0.55503902  0.17320699    -0.17900
C718        C  0.09687601  0.55626612  0.16440986    -0.20100
C719        C  0.09680135  0.59647870  0.16474577     0.20600
C720        C  0.13466339  0.63613684  0.17354173    -0.03000
C721        C  0.17147028  0.63463967  0.18297398    -0.06100
C722        C  0.17093905  0.59382181  0.18283930     0.20900
C723        C  0.20774504  0.67342328  0.19347078     0.19000
C724        C  0.20824788  0.71392833  0.19315443    -0.17500
C725        C  0.17225709  0.71568903  0.18323930    -0.19800
C726        C  0.13483334  0.67679847  0.17384342     0.20500
C727        C  0.09665966  0.67725862  0.16575871    -0.32800
C728        C  0.05805421  0.63722754  0.15825965     0.01200
C729        C  0.05869951  0.59728215  0.15733437    -0.24100
C730        C  0.20619150  0.59191361  0.19350489    -0.28700
C731        C  0.23985394  0.62928709  0.20568500     0.06900
C732        C  0.24154047  0.67033006  0.20506936    -0.27400
H733        H  0.13286997  0.52344440  0.17313204     0.11600
H734        H  0.06797087  0.52559029  0.15768475     0.12700
H735        H  0.23604088  0.74405093  0.20098808     0.11800
H736        H  0.17301784  0.74716068  0.18357674     0.11000
H737        H  0.09580875  0.70791295  0.16669035     0.16400
H738        H  0.02879222  0.56642664  0.15147431     0.12300
H739        H  0.20515869  0.56035218  0.19419506     0.15200
H740        H  0.26803606  0.69914581  0.21440442     0.15000
C741        C  0.17744203  0.68636770  0.31530261    -0.17900
C742        C  0.21224723  0.68279802  0.30548408    -0.20100
C743        C  0.20372489  0.65613780  0.28601860     0.20600
C744        C  0.15959422  0.63275752  0.27645402    -0.03000
C745        C  0.12465141  0.63665991  0.28621030    -0.06100
C746        C  0.13348101  0.66352426  0.30578476     0.20900
C747        C  0.08075438  0.61327656  0.27643981     0.19000
C748        C  0.07206899  0.58653531  0.25704037    -0.17500
C749        C  0.10644616  0.58218307  0.24759829    -0.19800
C750        C  0.15016086  0.60497525  0.25724996     0.20500
C751        C  0.18457880  0.60051024  0.24790034    -0.32800
C752        C  0.22937571  0.62597558  0.25622780     0.01200
C753        C  0.23846895  0.65275857  0.27576719    -0.24100
C754        C  0.09801948  0.66636363  0.31560622    -0.28700
C755        C  0.05390735  0.64210587  0.30616116     0.06900
C756        C  0.04596629  0.61629105  0.28639933    -0.27400
H757        H  0.18492340  0.70700088  0.33036140     0.11600
H758        H  0.24585891  0.70090370  0.31312884     0.12700
H759        H  0.03852828  0.56857259  0.24930342     0.11800
H760        H  0.09890323  0.56114957  0.23267445     0.11000
H761        H  0.17623381  0.57689837  0.23410021     0.16400
H762        H  0.27251355  0.67140840  0.28280292     0.12300
H763        H  0.10440774  0.68627427  0.33084703     0.15200
H764        H  0.01229329  0.59796659  0.27879088     0.15000
C765        C  0.53021490  0.75481296  0.17350559    -0.17900
C766        C  0.49361169  0.71824733  0.18353880    -0.20100
C767        C  0.45819299  0.72209464  0.19240908     0.20600
C768        C  0.45958085  0.76317189  0.19099635    -0.03000
C769        C  0.49633722  0.79989406  0.18082213    -0.06100
C770        C  0.53205067  0.79590208  0.17209974     0.20900
C771        C  0.49751039  0.84078470  0.17963489     0.19000
C772        C  0.46219379  0.84481658  0.18838877    -0.17500
C773        C  0.42598070  0.80861385  0.19853120    -0.19800
C774        C  0.42446374  0.76779605  0.19999354     0.20500
C775        C  0.38868083  0.73172362  0.21055100    -0.33400
C776        C  0.38731226  0.69103725  0.21217459     0.01200
C777        C  0.42170386  0.68597603  0.20292371    -0.24100
C778        C  0.56914604  0.83326989  0.16251902    -0.28700
C779        C  0.57075424  0.87441911  0.16176582     0.06900
C780        C  0.53429372  0.87735846  0.17005386    -0.27400
H781        H  0.55722838  0.75101141  0.16695465     0.11600
H782        H  0.49316266  0.68701541  0.18449714     0.12700
H783        H  0.46278784  0.87614849  0.18757189     0.11800
H784        H  0.39926461  0.81261145  0.20534448     0.11000
H785        H  0.36198793  0.73529635  0.21779671     0.16400
H786        H  0.42046134  0.65440898  0.20438430     0.12300
H787        H  0.59707135  0.83066854  0.15624484     0.15200
H788        H  0.53463540  0.90859128  0.16936176     0.15000
C789        C  0.44749391  0.82756982  0.30678764    -0.17900
C790        C  0.41039877  0.79069755  0.29614861    -0.20100
C791        C  0.41548431  0.75752426  0.28540265     0.20600
C792        C  0.45804272  0.76075251  0.28591751    -0.03000
C793        C  0.49541278  0.79780608  0.29680710    -0.06100
C794        C  0.49013562  0.83167300  0.30690434     0.20900
C795        C  0.53832677  0.80178636  0.29688938     0.19000
C796        C  0.54311179  0.76809426  0.28644286    -0.17500
C797        C  0.50606235  0.73144560  0.27548086    -0.19800
C798        C  0.46360305  0.72780791  0.27488287     0.20500
C799        C  0.42690471  0.69262258  0.26290930    -0.32800
C800        C  0.38501050  0.69015755  0.26196798     0.01200
C801        C  0.37915098  0.72200920  0.27350505    -0.24100
C802        C  0.52791778  0.86994123  0.31618419    -0.28700
C803        C  0.57096003  0.87492217  0.31564227     0.06900
C804        C  0.57590934  0.84023775  0.30661675    -0.27400
H805        H  0.44302336  0.85332467  0.31456425     0.11600
H806        H  0.37793697  0.78858620  0.29592856     0.12700
H807        H  0.57572841  0.77056526  0.28634074     0.11800
H808        H  0.51079182  0.70632350  0.26714818     0.11000
H809        H  0.43101707  0.66770611  0.25388791     0.16400
H810        H  0.34695739  0.72030815  0.27229507     0.12300
H811        H  0.52411250  0.89665772  0.32328803     0.15200
H812        H  0.60923226  0.84432151  0.30603488     0.15000
C813        C  0.22402423  0.38559255  0.28309928    -0.17900
C814        C  0.22253551  0.41931088  0.27148453    -0.20100
C815        C  0.25983493  0.46327717  0.27220690     0.20600
C816        C  0.29911182  0.47340473  0.28471731    -0.03000
C817        C  0.30086700  0.43926543  0.29613072    -0.06100
C818        C  0.26302599  0.39515520  0.29543241     0.20900
C819        C  0.34078714  0.44913603  0.30790073     0.19000
C820        C  0.37822483  0.49300533  0.30851330    -0.17500
C821        C  0.37623012  0.52697479  0.29751474    -0.19800
C822        C  0.33692850  0.51751010  0.28554504     0.20500
C823        C  0.33507701  0.55116540  0.27403468    -0.32800
C824        C  0.29644507  0.54100445  0.26128030     0.01200
C825        C  0.25890985  0.49717709  0.26038629    -0.24100
C826        C  0.26536447  0.36124616  0.30658251    -0.28700
C827        C  0.30554200  0.37080173  0.31774264     0.06900
C828        C  0.34295405  0.41476493  0.31842720    -0.27400
H829        H  0.19482015  0.35190242  0.28223654     0.11600
H830        H  0.19220801  0.41097803  0.26189802     0.12700
H831        H  0.40913178  0.50101681  0.31744587     0.11800
H832        H  0.40559895  0.56057766  0.29818416     0.11000
H833        H  0.36424969  0.58493032  0.27426466     0.16400
H834        H  0.22936386  0.48954176  0.25026608     0.12300
H835        H  0.23686743  0.32711761  0.30565764     0.15200
H836        H  0.37407708  0.42200027  0.32690697     0.15000
C837        C  0.75518719  0.49268171  0.26849973    -0.17900
C838        C  0.79152191  0.53114903  0.27868002    -0.20100
C839        C  0.82171307  0.52784683  0.29329905     0.20600
C840        C  0.81477355  0.48516545  0.29795284    -0.03000
C841        C  0.77784473  0.44627343  0.28781101    -0.06100
C842        C  0.74826695  0.45020466  0.27283486     0.20900
C843        C  0.77134585  0.40363710  0.29211448     0.19000
C844        C  0.80148271  0.40029941  0.30676737    -0.17500
C845        C  0.83840567  0.43887506  0.31659247    -0.19800
C846        C  0.84560734  0.48145223  0.31210647     0.20500
C847        C  0.88396388  0.52045980  0.32081853    -0.32800
C848        C  0.89138869  0.56303493  0.31595772     0.01200
C849        C  0.85967989  0.56652269  0.30262292    -0.24100
C850        C  0.71325736  0.41177812  0.26185419    -0.28700
C851        C  0.70779870  0.36953802  0.26535004     0.06900
C852        C  0.73592698  0.36538997  0.28102102    -0.27400
H853        H  0.73284993  0.49621528  0.25696166     0.11600
H854        H  0.79647368  0.56358920  0.27480311     0.12700
H855        H  0.79705125  0.36790399  0.31026075     0.11800
H856        H  0.86172184  0.43544387  0.32746159     0.11000
H857        H  0.90890459  0.51787562  0.33082082     0.16400
H858        H  0.86606302  0.59937096  0.29841323     0.12300
H859        H  0.69109734  0.41478940  0.24994626     0.15200
H860        H  0.73170100  0.33279819  0.28366974     0.15000
C861        C  0.73421849  0.46411935  0.18118503    -0.17900
C862        C  0.77077009  0.50222552  0.17218084    -0.20100
C863        C  0.81518052  0.51155686  0.17564240     0.20600
C864        C  0.82273213  0.48240210  0.18856072    -0.03000
C865        C  0.78598252  0.44395786  0.19751161    -0.06100
C866        C  0.74147007  0.43463879  0.19372595     0.20900
C867        C  0.79385683  0.41487430  0.21029032     0.19000
C868        C  0.83813720  0.42453489  0.21421406    -0.17500
C869        C  0.87450132  0.46258662  0.20536307    -0.19800
C870        C  0.86703983  0.49144001  0.19245156     0.20500
C871        C  0.90329566  0.52887547  0.18316206    -0.32800
C872        C  0.89636466  0.55764276  0.16971983     0.01200
C873        C  0.85213629  0.54911568  0.16625301    -0.24100
C874        C  0.70520394  0.39635669  0.20284022    -0.28700
C875        C  0.71319144  0.36779033  0.21571385     0.06900
C876        C  0.75737708  0.37691008  0.21918973    -0.27400
H877        H  0.70025666  0.45760664  0.17826661     0.11600
H878        H  0.76428256  0.52428276  0.16242486     0.12700
H879        H  0.84463449  0.40262888  0.22410230     0.11800
H880        H  0.90848590  0.46932061  0.20850518     0.11000
H881        H  0.93710260  0.53506602  0.18624193     0.16400
H882        H  0.84641821  0.57123424  0.15610157     0.12300
H883        H  0.67124118  0.38984708  0.20062188     0.15200
H884        H  0.76326647  0.35488850  0.22936559     0.15000
C885        C  0.43160430  0.21668338  0.31079017    -0.17900
C886        C  0.46438557  0.21296020  0.29898147    -0.20100
C887        C  0.49676940  0.24902138  0.28677144     0.20600
C888        C  0.49667310  0.28952034  0.28683523    -0.03000
C889        C  0.46403335  0.29339859  0.29890155    -0.06100
C890        C  0.43087358  0.25660735  0.31066071     0.20900
C891        C  0.46392235  0.33380495  0.29868482     0.19000
C892        C  0.49673963  0.37017216  0.28687336    -0.17500
C893        C  0.52884567  0.36623941  0.27478247    -0.19800
C894        C  0.52877048  0.32602495  0.27451250     0.20500
C895        C  0.56014344  0.32167038  0.26200399    -0.32800
C896        C  0.56018413  0.28161096  0.26181636     0.01200
C897        C  0.52906479  0.24544586  0.27433218    -0.24100
C898        C  0.39665471  0.25995469  0.32131638    -0.28700
C899        C  0.39519391  0.29952448  0.32011733     0.06900
C900        C  0.42993847  0.33672884  0.30950525    -0.27400
H901        H  0.40645406  0.18814447  0.31977160     0.11600
H902        H  0.46404185  0.18170550  0.29915393     0.12700
H903        H  0.49700703  0.40138421  0.28661901     0.11800
H904        H  0.55348495  0.39451532  0.26546886     0.11000
H905        H  0.58487146  0.34951922  0.25244104     0.16400
H906        H  0.52978415  0.21470022  0.27412505     0.12300
H907        H  0.37012842  0.23114558  0.32959891     0.15200
H908        H  0.42955512  0.36759061  0.30880217     0.15000
C909        C  0.56451518  0.09494306  0.27334789    -0.17900
C910        C  0.56448769  0.05973015  0.28407957    -0.20100
C911        C  0.60380274  0.06654993  0.29508313     0.20600
C912        C  0.64325599  0.10937609  0.29578388    -0.03000
C913        C  0.64322565  0.14499318  0.28506689    -0.06100
C914        C  0.60377928  0.13750422  0.27358227     0.20900
C915        C  0.68289201  0.18781527  0.28543726     0.19000
C916        C  0.72191672  0.19471082  0.29676660    -0.17500
C917        C  0.72198522  0.15925949  0.30730949    -0.19800
C918        C  0.68299062  0.11636534  0.30673760     0.20500
C919        C  0.68335705  0.08008662  0.31635161    -0.32800
C920        C  0.64451760  0.03696215  0.31500915     0.01200
C921        C  0.60461177  0.03089053  0.30482781    -0.24100
C922        C  0.60456425  0.17254508  0.26223137    -0.28700
C923        C  0.64411053  0.21479202  0.26233993     0.06900
C924        C  0.68297073  0.22266689  0.27411526    -0.27400
H925        H  0.53398835  0.08878188  0.26466675     0.11600
H926        H  0.53391728  0.02695975  0.28346299     0.12700
H927        H  0.75257471  0.22740430  0.29722988     0.11800
H928        H  0.75273098  0.16526848  0.31567600     0.11000
H929        H  0.71420967  0.08516539  0.32418797     0.16400
H930        H  0.57421561  0.99797990  0.30387861     0.12300
H931        H  0.57471613  0.16700357  0.25304076     0.15200
H932        H  0.71342721  0.25547512  0.27390826     0.15000
C933        C  0.57402049  0.07874180  0.16730185    -0.17900
C934        C  0.57327743  0.11482679  0.17748311    -0.20100
C935        C  0.61151332  0.14847887  0.18932883     0.20600
C936        C  0.65097784  0.14581270  0.19086510    -0.03000
C937        C  0.65194660  0.10975500  0.18031582    -0.06100
C938        C  0.61314401  0.07593917  0.16863140     0.20900
C939        C  0.69142638  0.10709725  0.18183400     0.19000
C940        C  0.72926146  0.14018843  0.19414174    -0.17500
C941        C  0.72809854  0.17560996  0.20484673    -0.19800
C942        C  0.68923078  0.17876264  0.20326179     0.20500
C943        C  0.68762752  0.21380477  0.21419703    -0.32800
C944        C  0.64849266  0.21647432  0.21272300     0.01200
C945        C  0.61074589  0.18422561  0.20008004    -0.24100
C946        C  0.61379867  0.03935065  0.15897137    -0.28700
C947        C  0.65291206  0.03647085  0.16047648     0.06900
C948        C  0.69189542  0.07075083  0.17155373    -0.27400
H949        H  0.54391144  0.05290583  0.15845578     0.11600
H950        H  0.54264145  0.11618370  0.17628110     0.12700
H951        H  0.75963357  0.13843734  0.19567533     0.11800
H952        H  0.75760161  0.20051695  0.21442484     0.11000
H953        H  0.71647170  0.23868240  0.22419548     0.16400
H954        H  0.58033962  0.18611426  0.19937707     0.12300
H955        H  0.58356926  0.01253950  0.15059792     0.15200
H956        H  0.72165869  0.06791242  0.17313485     0.15000
C957        C  0.17609147  0.09614074  0.09590235    -0.17900
C958        C  0.14188798  0.06566031  0.08101095    -0.20100
C959        C  0.11784542  0.07933295  0.06754152     0.20600
C960        C  0.12817814  0.12412156  0.06925905    -0.03000
C961        C  0.16233864  0.15473098  0.08442438    -0.06100
C962        C  0.18667106  0.14075976  0.09768102     0.20900
C963        C  0.17226736  0.19936049  0.08621876     0.19000
C964        C  0.14825296  0.21310131  0.07281850    -0.17500
C965        C  0.11471118  0.18290303  0.05767340    -0.19800
C966        C  0.10447436  0.13842553  0.05579099     0.20500
C967        C  0.07084564  0.10806157  0.04067990    -0.32800
C968        C  0.06000761  0.06321466  0.03884390     0.01200
C969        C  0.08370098  0.04908907  0.05240180    -0.24100
C970        C  0.22128053  0.17171948  0.11236183    -0.28700
C971        C  0.23127940  0.21623000  0.11420954     0.06900
C972        C  0.20630030  0.22961981  0.10122921    -0.27400
H973        H  0.19432454  0.08481432  0.10601578     0.11600
H974        H  0.13437925  0.03141471  0.07995656     0.12700
H975        H  0.15555855  0.24727729  0.07397734     0.11800
H976        H  0.09672622  0.19433566  0.04743652     0.11000
H977        H  0.05281007  0.11946703  0.03045163     0.16400
H978        H  0.07567735  0.01467231  0.05116329     0.12300
H979        H  0.24023034  0.16112802  0.12243825     0.15200
H980        H  0.21403285  0.26395545  0.10242535     0.15000
C981        C  0.40168253  0.19401042  0.18450786    -0.17900
C982        C  0.43747339  0.19514077  0.19641619    -0.20100
C983        C  0.48017565  0.23452631  0.19783401     0.20600
C984        C  0.48712521  0.27293434  0.18679124    -0.03000
C985        C  0.45103110  0.27188388  0.17491850    -0.06100
C986        C  0.40794806  0.23230551  0.17390056     0.20900
C987        C  0.45770500  0.31093287  0.16473196     0.19000
C988        C  0.50047839  0.35017484  0.16587904    -0.17500
C989        C  0.53631947  0.35109903  0.17747320    -0.19800
C990        C  0.52983504  0.31284227  0.18814626     0.20500
C991        C  0.56506149  0.31412666  0.20057956    -0.32800
C992        C  0.55819670  0.27640035  0.21182310     0.01200
C993        C  0.51586129  0.23658591  0.21041459    -0.24100
C994        C  0.37154850  0.23243494  0.16317049    -0.28700
C995        C  0.37776463  0.27200281  0.15410021     0.06900
C996        C  0.42103156  0.31067959  0.15442574    -0.27400
H997        H  0.36886155  0.16341297  0.18395007     0.11600
H998        H  0.43160332  0.16535481  0.20475085     0.12700
H999        H  0.50601634  0.38037445  0.15811847     0.11800
H1000       H  0.56893905  0.38193820  0.17838948     0.11000
H1001       H  0.59731740  0.34494358  0.20222247     0.16400
H1002       H  0.51078070  0.20755292  0.21926487     0.12300
H1003       H  0.33795965  0.20282271  0.16317774     0.15200
H1004       H  0.42567940  0.34120360  0.14741296     0.15000
C1005       C  0.22231342  0.43426724  0.17853621    -0.17900
C1006       C  0.22268422  0.39811604  0.16816178    -0.20100
C1007       C  0.26186354  0.39535859  0.16899219     0.20600
C1008       C  0.30091819  0.42917337  0.18058015    -0.03000
C1009       C  0.30057506  0.46556993  0.19102133    -0.06100
C1010       C  0.26112724  0.46825091  0.18988831     0.20900
C1011       C  0.33970554  0.49921698  0.20264984     0.19000
C1012       C  0.37857083  0.49610136  0.20389614    -0.17500
C1013       C  0.37892166  0.46008843  0.19351145    -0.19800
C1014       C  0.34036888  0.42664445  0.18178330     0.20500
C1015       C  0.34062405  0.39058329  0.17137095    -0.32800
C1016       C  0.30190583  0.35656111  0.15981941     0.01200
C1017       C  0.26263836  0.35928839  0.15860201    -0.24100
C1018       C  0.26123371  0.50470862  0.20029013    -0.28700
C1019       C  0.30013608  0.53795135  0.21181590     0.06900
C1020       C  0.33918659  0.53524661  0.21295626    -0.27400
H1021       H  0.19168993  0.43568873  0.17765009     0.11600
H1022       H  0.19232824  0.37232522  0.15946632     0.12700
H1023       H  0.40871576  0.52155810  0.21287299     0.11800
H1024       H  0.40936872  0.45838225  0.19465376     0.11000
H1025       H  0.37115114  0.38898830  0.17244685     0.16400
H1026       H  0.23253237  0.33310676  0.14989080     0.12300
H1027       H  0.23097207  0.50681240  0.19987899     0.15200
H1028       H  0.36888088  0.56099964  0.22214896     0.15000
loop_ 
_geom_bond_atom_site_label_1 
_geom_bond_atom_site_label_2 
_geom_bond_distance 
_geom_bond_site_symmetry_2 
_ccdc_geom_bond_type 
C1            N2   1.362       .  A
C1            N6   1.363       .  A
C1          C971   1.478       .  S
N2            C3   1.357       .  A
C3            N4   1.352       .  A
C3         C1016   1.480       .  S
N4            C5   1.352       .  A
C5            N6   1.358       .  A
C5          C995   1.468       .  S
C7            H8   1.112       .  S
C7           C13   1.527       .  S
C7           C12   1.531       .  S
C7           C11   1.531       .  S
C9           H10   1.111       .  S
C9           C15   1.536       .  S
C9           C14   1.531       .  S
C9           C16   1.534       .  S
C11          C14   1.371       .  D
C11         C896   1.463       .  S
C12          C15   1.374       .  D
C12         C851   1.485       .  S
C13          C16   1.370       .  D
C13         C923   1.466       .  S
C14         C992   1.475       .  S
C15         C875   1.473       .  S
C16         C944   1.475       .  S
C17          H18   1.111       .  S
C17          C23   1.540       .  S
C17          C22   1.532       .  S
C17          C21   1.534       .  S
C19          H20   1.112       .  S
C19          C25   1.530       .  S
C19          C24   1.530       .  S
C19          C26   1.529       .  S
C21          C24   1.370       .  D
C21         C800   1.470       .  S
C22          C25   1.369       .  D
C22         C824   1.475       .  S
C23          C26   1.381       .  D
C23         C752   1.495       .  S
C24         C776   1.476       .  S
C25        C1019   1.468       .  S
C26         C731   1.472       .  S
C27          N28   1.363   1_655  A
C27          N32   1.365       .  A
C27         C704   1.473       .  S
N28          C29   1.355       .  A
C29          N30   1.349   1_455  A
C29         C728   1.468       .  S
N30          C31   1.352       .  A
C31          N32   1.360       .  A
C31         C872   1.482       .  S
C33          N34   1.368       .  A
C33          N38   1.366       .  A
C33         C680   1.489       .  S
N34          C35   1.364       .  A
C35          N36   1.353       .  A
C35         C779   1.484       .  S
N36          C37   1.347       .  A
C37          N38   1.356       .  A
C37         C947   1.471   1_565  S
C39          N40   1.367       .  A
C39          N44   1.367   1_655  A
C39         C659   1.493       .  S
N40          C41   1.362       .  A
C41          N42   1.351       .  A
C41         C848   1.474       .  S
N42          C43   1.354   1_655  A
C43          N44   1.361       .  A
C43         C755   1.484       .  S
C45          N46   1.363       .  A
C45          N50   1.364   1_565  A
C45         C635   1.480       .  S
N46          C47   1.357       .  A
C47          N48   1.351       .  A
C47         C803   1.470       .  S
N48          C49   1.352       .  A
C49          N50   1.360   1_565  A
C49         C920   1.482   1_565  S
C51          N52   1.359       .  A
C51          N56   1.364       .  A
C51         C608   1.482       .  S
N52          C53   1.352       .  A
C53          N54   1.353       .  A
C53         C899   1.476       .  S
N54          C55   1.354       .  A
C55          N56   1.361       .  A
C55         C827   1.472       .  S
O57         Ni63   1.928       .  S
O57          C78   1.273       .  A
O58         Ni81   1.917       .  S
O58          C67   1.268       .  A
O59         Ni63   1.898       .  S
O59         Ni81   1.902   1_455  S
O59         Ni75   1.908   1_455  S
O59          H82   0.967   1_565  S
C60         C536   1.476       .  S
C60          O77   1.279       .  A
C60          O69   1.277       .  A
O61         Ni80   1.925       .  S
O61          C67   1.267       .  A
O62         Ni80   1.898       .  S
O62          C64   1.266       .  A
Ni63         O66   1.920   1_565  S
Ni63         O68   1.909       .  S
C64         C560   1.478   1_565  S
C64          O74   1.271       .  A
O65         Ni81   1.919   1_445  S
O65          C71   1.278       .  A
O66          C71   1.279       .  A
C67         C632   1.470       .  S
O68          C70   1.269       .  A
O69         Ni80   1.917       .  S
C70         C656   1.489       .  S
C70          O76   1.273   1_455  A
C71         C611   1.474       .  S
H72          O73   0.965       .  S
O73         Ni81   1.914       .  S
O73         Ni75   1.908       .  S
O73         Ni80   1.908       .  S
O74         Ni75   1.924       .  S
Ni75         O79   1.923   1_655  S
Ni75         O77   1.925       .  S
O76         Ni81   1.934       .  S
C78         C584   1.480       .  S
C78          O79   1.269       .  A
O83         Ni89   1.925   1_654  S
O83         C104   1.268       .  A
O84        Ni107   1.909       .  S
O84          C93   1.267   1_665  A
O85         Ni89   1.901       .  S
O85        Ni107   1.903   1_455  S
O85        Ni101   1.917   1_456  S
O85         H108   0.963       .  S
C86         C683   1.485       .  S
C86         O103   1.282       .  A
C86          O95   1.278       .  A
O87        Ni106   1.923   1_455  S
O87          C93   1.268       .  A
O88        Ni106   1.898   1_454  S
O88          C90   1.267       .  A
Ni89         O92   1.921       .  S
Ni89         O94   1.896   1_455  S
C90         C968   1.484       .  S
C90         O100   1.272   1_545  A
O91        Ni107   1.929   1_455  S
O91          C97   1.280       .  A
O92          C97   1.278       .  A
C93         C512   1.465       .  S
O94          C96   1.267       .  A
O95        Ni106   1.915   1_564  S
C96         C467   1.476       .  S
C96         O102   1.271       .  A
C97         C488   1.483       .  S
H98          O99   0.969       .  S
O99        Ni107   1.913       .  S
O99        Ni101   1.901   1_556  S
O99        Ni106   1.897   1_565  S
O100       Ni101   1.931   1_455  S
Ni101       O105   1.912       .  S
Ni101       O103   1.935       .  S
O102       Ni107   1.930       .  S
C104        C707   1.468       .  S
C104        O105   1.268       .  A
C109        N110   1.362       .  A
C109        N114   1.363   1_655  A
C109        C563   1.481       .  S
N110        C111   1.357       .  A
C111        N112   1.356       .  A
C111        C416   1.481       .  S
N112        C113   1.353   1_655  A
C113        N114   1.357       .  A
C113        C440   1.467       .  S
C115        N116   1.363   1_655  A
C115        N120   1.361       .  A
C115        C515   1.474       .  S
N116        C117   1.359       .  A
C117        N118   1.356   1_455  A
C117        C395   1.479       .  S
N118        C119   1.351       .  A
C119        N120   1.354       .  A
C119        C368   1.465       .  S
C121        H122   1.111       .  S
C121        C127   1.535       .  S
C121        C126   1.536       .  S
C121        C125   1.538       .  S
C123        H124   1.111       .  S
C123        C129   1.536       .  S
C123        C128   1.533       .  S
C123        C130   1.531       .  S
C125        C128   1.379       .  D
C125        C419   1.489       .  S
C126        C129   1.372       .  D
C126        C275   1.478       .  S
C127        C130   1.370       .  D
C127        C323   1.472       .  S
C128        C371   1.479       .  S
C129        C296   1.479       .  S
C130        C347   1.477       .  S
C131        H132   1.112       .  S
C131        C137   1.531       .  S
C131        C136   1.533       .  S
C131        C135   1.528       .  S
C133        H134   1.111       .  S
C133        C139   1.535       .  S
C133        C138   1.538       .  S
C133        C140   1.536       .  S
C135        C138   1.375       .  D
C135        C251   1.482       .  S
C136        C139   1.379       .  D
C136        C443   1.483       .  S
C137        C140   1.372       .  D
C137        C200   1.474       .  S
C138        C227   1.479       .  S
C139        C392   1.478       .  S
C140        C176   1.482       .  S
C141        N142   1.361       .  A
C141        N146   1.364       .  A
C141        C587   1.480       .  S
N142        C143   1.360       .  A
C143        N144   1.356       .  A
C143        C320   1.477   1_565  S
N144        C145   1.354       .  A
C145        N146   1.360       .  A
C145        C248   1.480       .  S
C147        N148   1.362       .  A
C147        N152   1.366       .  A
C147        C539   1.486       .  S
N148        C149   1.356       .  A
C149        N150   1.353       .  A
C149        C203   1.482       .  S
N150        C151   1.353       .  A
C151        N152   1.361       .  A
C151        C272   1.475       .  S
C153        N154   1.361       .  A
C153        N158   1.367       .  A
C153        C464   1.487       .  S
N154        C155   1.356       .  A
C155        N156   1.355       .  A
C155        C179   1.473       .  S
N156        C157   1.358       .  A
C157        N158   1.362       .  A
C157        C299   1.488       .  S
C159        N160   1.369       .  A
C159        N164   1.369       .  A
C159        C491   1.488       .  S
N160        C161   1.360       .  A
C161        N162   1.348       .  A
C161        C344   1.481   1_565  S
N162        C163   1.351       .  A
C163        N164   1.359       .  A
C163        C224   1.487       .  S
C165        C166   1.400       .  A
C165        C170   1.404       .  A
C165        H181   1.084       .  S
C166        C167   1.403       .  A
C166        H182   1.083       .  S
C167        C177   1.404       .  A
C167        C168   1.412       .  A
C168        C174   1.412       .  A
C168        C169   1.412       .  A
C169        C171   1.412       .  A
C169        C170   1.413       .  A
C170        C178   1.405       .  A
C171        C180   1.403       .  A
C171        C172   1.403       .  A
C172        C173   1.399       .  A
C172        H183   1.084       .  S
C173        C174   1.404       .  A
C173        H184   1.084       .  S
C174        C175   1.403       .  A
C175        C176   1.403       .  A
C175        H185   1.081       .  S
C176        C177   1.404       .  A
C177        H186   1.084       .  S
C178        C179   1.404       .  A
C178        H187   1.084       .  S
C179        C180   1.404       .  A
C180        H188   1.085       .  S
C189        C190   1.395       .  A
C189        C194   1.403       .  A
C189        H205   1.084       .  S
C190        C191   1.401       .  A
C190        H206   1.084       .  S
C191        C201   1.397       .  A
C191        C192   1.412       .  A
C192        C198   1.412       .  A
C192        C193   1.409       .  A
C193        C195   1.412       .  A
C193        C194   1.409       .  A
C194        C202   1.396       .  A
C195        C204   1.406       .  A
C195        C196   1.405       .  A
C196        C197   1.401       .  A
C196        H207   1.083       .  S
C197        C198   1.404       .  A
C197        H208   1.084       .  S
C198        C199   1.403       .  A
C199        C200   1.402       .  A
C199        H209   1.082       .  S
C200        C201   1.401       .  A
C201        H210   1.085       .  S
C202        C203   1.407       .  A
C202        H211   1.084       .  S
C203        C204   1.409       .  A
C204        H212   1.084       .  S
C213        C214   1.406       .  A
C213        C218   1.406       .  A
C213        H229   1.083       .  S
C214        C215   1.406       .  A
C214        H230   1.083       .  S
C215        C225   1.414       .  A
C215        C216   1.413       .  A
C216        C222   1.408       .  A
C216        C217   1.411       .  A
C217        C219   1.412       .  A
C217        C218   1.412       .  A
C218        C226   1.411       .  A
C219        C228   1.391       .  A
C219        C220   1.399       .  A
C220        C221   1.391       .  A
C220        H231   1.084       .  S
C221        C222   1.401       .  A
C221        H232   1.084       .  S
C222        C223   1.390       .  A
C223        C224   1.408       .  A
C223        H233   1.084       .  S
C224        C225   1.411       .  A
C225        H234   1.084       .  S
C226        C227   1.407       .  A
C226        H235   1.084       .  S
C227        C228   1.399       .  A
C228        H236   1.084       .  S
C237        C238   1.399       .  A
C237        C242   1.403       .  A
C237        H253   1.084       .  S
C238        C239   1.404       .  A
C238        H254   1.084       .  S
C239        C249   1.403       .  A
C239        C240   1.411       .  A
C240        C246   1.413       .  A
C240        C241   1.413       .  A
C241        C243   1.412       .  A
C241        C242   1.412       .  A
C242        C250   1.403       .  A
C243        C252   1.404       .  A
C243        C244   1.403       .  A
C244        C245   1.400       .  A
C244        H255   1.083       .  S
C245        C246   1.404       .  A
C245        H256   1.083       .  S
C246        C247   1.406       .  A
C247        C248   1.406       .  A
C247        H257   1.084       .  S
C248        C249   1.407       .  A
C249        H258   1.085       .  S
C250        C251   1.402       .  A
C250        H259   1.082       .  S
C251        C252   1.404       .  A
C252        H260   1.084       .  S
C261        C262   1.401       .  A
C261        C266   1.404       .  A
C261        H277   1.083       .  S
C262        C263   1.404       .  A
C262        H278   1.083       .  S
C263        C273   1.407       .  A
C263        C264   1.414       .  A
C264        C270   1.411       .  A
C264        C265   1.413       .  A
C265        C267   1.413       .  A
C265        C266   1.412       .  A
C266        C274   1.405       .  A
C267        C276   1.402       .  A
C267        C268   1.403       .  A
C268        C269   1.398       .  A
C268        H279   1.084       .  S
C269        C270   1.404       .  A
C269        H280   1.084       .  S
C270        C271   1.401       .  A
C271        C272   1.406       .  A
C271        H281   1.085       .  S
C272        C273   1.404       .  A
C273        H282   1.084       .  S
C274        C275   1.403       .  A
C274        H283   1.084       .  S
C275        C276   1.402       .  A
C276        H284   1.085       .  S
C285        C286   1.397       .  A
C285        C290   1.403       .  A
C285        H301   1.084       .  S
C286        C287   1.402       .  A
C286        H302   1.084       .  S
C287        C297   1.402       .  A
C287        C288   1.413       .  A
C288        C294   1.412       .  A
C288        C289   1.415       .  A
C289        C291   1.413       .  A
C289        C290   1.410       .  A
C290        C298   1.400       .  A
C291        C300   1.411       .  A
C291        C292   1.406       .  A
C292        C293   1.403       .  A
C292        H303   1.083       .  S
C293        C294   1.405       .  A
C293        H304   1.084       .  S
C294        C295   1.408       .  A
C295        C296   1.406       .  A
C295        H305   1.084       .  S
C296        C297   1.400       .  A
C297        H306   1.085       .  S
C298        C299   1.408       .  A
C298        H307   1.084       .  S
C299        C300   1.410       .  A
C300        H308   1.084       .  S
C309        C310   1.399       .  A
C309        C314   1.403       .  A
C309        H325   1.084       .  S
C310        C311   1.403       .  A
C310        H326   1.083       .  S
C311        C321   1.404       .  A
C311        C312   1.413       .  A
C312        C318   1.410       .  A
C312        C313   1.411       .  A
C313        C315   1.413       .  A
C313        C314   1.412       .  A
C314        C322   1.401       .  A
C315        C324   1.402       .  A
C315        C316   1.403       .  A
C316        C317   1.398       .  A
C316        H327   1.084       .  S
C317        C318   1.404       .  A
C317        H328   1.084       .  S
C318        C319   1.400       .  A
C319        C320   1.407       .  A
C319        H329   1.084   1_545  S
C320        C321   1.405       .  A
C321        H330   1.084       .  S
C322        C323   1.401       .  A
C322        H331   1.084       .  S
C323        C324   1.401       .  A
C324        H332   1.084       .  S
C333        C334   1.402       .  A
C333        C338   1.404       .  A
C333        H349   1.083       .  S
C334        C335   1.404       .  A
C334        H350   1.083       .  S
C335        C345   1.411       .  A
C335        C336   1.415       .  A
C336        C342   1.409       .  A
C336        C337   1.413       .  A
C337        C339   1.414       .  A
C337        C338   1.412       .  A
C338        C346   1.406       .  A
C339        C348   1.402       .  A
C339        C340   1.402       .  A
C340        C341   1.397       .  A
C340        H351   1.084       .  S
C341        C342   1.404       .  A
C341        H352   1.084       .  S
C342        C343   1.398       .  A
C343        C344   1.408       .  A
C343        H353   1.085       .  S
C344        C345   1.406       .  A
C345        H354   1.084       .  S
C346        C347   1.404       .  A
C346        H355   1.084       .  S
C347        C348   1.401       .  A
C348        H356   1.085       .  S
C357        C358   1.400       .  A
C357        C362   1.404       .  A
C357        H373   1.084       .  S
C358        C359   1.404       .  A
C358        H374   1.084       .  S
C359        C369   1.404       .  A
C359        C360   1.413       .  A
C360        C366   1.411       .  A
C360        C361   1.410       .  A
C361        C363   1.413       .  A
C361        C362   1.411       .  A
C362        C370   1.401       .  A
C363        C372   1.400       .  A
C363        C364   1.402       .  A
C364        C365   1.397       .  A
C364        H375   1.084       .  S
C365        C366   1.403       .  A
C365        H376   1.084       .  S
C366        C367   1.399       .  A
C367        C368   1.402       .  A
C367        H377   1.085       .  S
C368        C369   1.403       .  A
C369        H378   1.084       .  S
C370        C371   1.406       .  A
C370        H379   1.084       .  S
C371        C372   1.401       .  A
C372        H380   1.085       .  S
C381        C382   1.402       .  A
C381        C386   1.405       .  A
C381        H397   1.083       .  S
C382        C383   1.405       .  A
C382        H398   1.084       .  S
C383        C393   1.405       .  A
C383        C384   1.411       .  A
C384        C390   1.412       .  A
C384        C385   1.409       .  A
C385        C387   1.409       .  A
C385        C386   1.413       .  A
C386        C394   1.408       .  A
C387        C396   1.393       .  A
C387        C388   1.402       .  A
C388        C389   1.393       .  A
C388        H399   1.084       .  S
C389        C390   1.400       .  A
C389        H400   1.084       .  S
C390        C391   1.394       .  A
C391        C392   1.401       .  A
C391        H401   1.084       .  S
C392        C393   1.405       .  A
C393        H402   1.080       .  S
C394        C395   1.409       .  A
C394        H403   1.084       .  S
C395        C396   1.406       .  A
C396        H404   1.084       .  S
C405        C406   1.395       .  A
C405        C410   1.402       .  A
C405        H421   1.084       .  S
C406        C407   1.402       .  A
C406        H422   1.084       .  S
C407        C417   1.396       .  A
C407        C408   1.410       .  A
C408        C414   1.412       .  A
C408        C409   1.411       .  A
C409        C411   1.412       .  A
C409        C410   1.410       .  A
C410        C418   1.396       .  A
C411        C420   1.409       .  A
C411        C412   1.405       .  A
C412        C413   1.403       .  A
C412        H423   1.083       .  S
C413        C414   1.405       .  A
C413        H424   1.084       .  S
C414        C415   1.408       .  A
C415        C416   1.410       .  A
C415        H425   1.084       .  S
C416        C417   1.406       .  A
C417        H426   1.084       .  S
C418        C419   1.405       .  A
C418        H427   1.084       .  S
C419        C420   1.407       .  A
C420        H428   1.083       .  S
C429        C430   1.398       .  A
C429        C434   1.403       .  A
C429        H445   1.084       .  S
C430        C431   1.403       .  A
C430        H446   1.084       .  S
C431        C441   1.402       .  A
C431        C432   1.412       .  A
C432        C438   1.413       .  A
C432        C433   1.412       .  A
C433        C435   1.412       .  A
C433        C434   1.412       .  A
C434        C442   1.402       .  A
C435        C444   1.404       .  A
C435        C436   1.404       .  A
C436        C437   1.400       .  A
C436        H447   1.084       .  S
C437        C438   1.404       .  A
C437        H448   1.084       .  S
C438        C439   1.405       .  A
C439        C440   1.403       .  A
C439        H449   1.084       .  S
C440        C441   1.403       .  A
C441        H450   1.085       .  S
C442        C443   1.403       .  A
C442        H451   1.085       .  S
C443        C444   1.406       .  A
C444        H452   1.084       .  S
C453        C454   1.401       .  A
C453        C458   1.404       .  A
C453        H469   1.084       .  S
C454        C455   1.406       .  A
C454        H470   1.084       .  S
C455        C465   1.405       .  A
C455        C456   1.409       .  A
C456        C462   1.412       .  A
C456        C457   1.412       .  A
C457        C459   1.409       .  A
C457        C458   1.414       .  A
C458        C466   1.408       .  A
C459        C468   1.396       .  A
C459        C460   1.402       .  A
C460        C461   1.396       .  A
C460        H471   1.084       .  S
C461        C462   1.402       .  A
C461        H472   1.083       .  S
C462        C463   1.402       .  A
C463        C464   1.406       .  A
C463        H473   1.084       .  S
C464        C465   1.412       .  A
C465        H474   1.084       .  S
C466        C467   1.407       .  A
C466        H475   1.084       .  S
C467        C468   1.405       .  A
C468        H476   1.085       .  S
C477        C478   1.401       .  A
C477        C482   1.405   1_545  A
C477        H493   1.083       .  S
C478        C479   1.404   1_545  A
C478        H494   1.083       .  S
C479        C489   1.408       .  A
C479        C480   1.413       .  A
C480        C486   1.410       .  A
C480        C481   1.413       .  A
C481        C483   1.411       .  A
C481        C482   1.411       .  A
C482        C490   1.406       .  A
C483        C492   1.403       .  A
C483        C484   1.403       .  A
C484        C485   1.398       .  A
C484        H495   1.084       .  S
C485        C486   1.403       .  A
C485        H496   1.084       .  S
C486        C487   1.400       .  A
C487        C488   1.408       .  A
C487        H497   1.084       .  S
C488        C489   1.407       .  A
C489        H498   1.084   1_565  S
C490        C491   1.410       .  A
C490        H499   1.084   1_565  S
C491        C492   1.409       .  A
C492        H500   1.084       .  S
C501        C502   1.398       .  A
C501        C506   1.403       .  A
C501        H517   1.084       .  S
C502        C503   1.403       .  A
C502        H518   1.084       .  S
C503        C513   1.401       .  A
C503        C504   1.412   1_655  A
C504        C510   1.412       .  A
C504        C505   1.409       .  A
C505        C507   1.412       .  A
C505        C506   1.411   1_455  A
C506        C514   1.400       .  A
C507        C516   1.401       .  A
C507        C508   1.403       .  A
C508        C509   1.398       .  A
C508        H519   1.084       .  S
C509        C510   1.403       .  A
C509        H520   1.084       .  S
C510        C511   1.401       .  A
C511        C512   1.404       .  A
C511        H521   1.085       .  S
C512        C513   1.402   1_455  A
C513        H522   1.085       .  S
C514        C515   1.406       .  A
C514        H523   1.084       .  S
C515        C516   1.405   1_655  A
C516        H524   1.084       .  S
C525        C526   1.401       .  A
C525        C530   1.404       .  A
C525        H541   1.083       .  S
C526        C527   1.404       .  A
C526        H542   1.083       .  S
C527        C537   1.406       .  A
C527        C528   1.412       .  A
C528        C534   1.411       .  A
C528        C529   1.412       .  A
C529        C531   1.410       .  A
C529        C530   1.411       .  A
C530        C538   1.406       .  A
C531        C540   1.400       .  A
C531        C532   1.403       .  A
C532        C533   1.397       .  A
C532        H543   1.084       .  S
C533        C534   1.403       .  A
C533        H544   1.084       .  S
C534        C535   1.400       .  A
C535        C536   1.406       .  A
C535        H545   1.085       .  S
C536        C537   1.406       .  A
C537        H546   1.084       .  S
C538        C539   1.409       .  A
C538        H547   1.084       .  S
C539        C540   1.409       .  A
C540        H548   1.084       .  S
C549        C550   1.398       .  A
C549        C554   1.403       .  A
C549        H565   1.084       .  S
C550        C551   1.403       .  A
C550        H566   1.084       .  S
C551        C561   1.400       .  A
C551        C552   1.411       .  A
C552        C558   1.412       .  A
C552        C553   1.410       .  A
C553        C555   1.411   1_655  A
C553        C554   1.411       .  A
C554        C562   1.401       .  A
C555        C564   1.402       .  A
C555        C556   1.403       .  A
C556        C557   1.398       .  A
C556        H567   1.083       .  S
C557        C558   1.403   1_455  A
C557        H568   1.084       .  S
C558        C559   1.401       .  A
C559        C560   1.406       .  A
C559        H569   1.084   1_655  S
C560        C561   1.408       .  A
C561        H570   1.084       .  S
C562        C563   1.408       .  A
C562        H571   1.084       .  S
C563        C564   1.407   1_655  A
C564        H572   1.084       .  S
C573        C574   1.405       .  A
C573        C578   1.406       .  A
C573        H589   1.084   1_565  S
C574        C575   1.406       .  A
C574        H590   1.083   1_565  S
C575        C585   1.413       .  A
C575        C576   1.413       .  A
C576        C582   1.410       .  A
C576        C577   1.414       .  A
C577        C579   1.412       .  A
C577        C578   1.412       .  A
C578        C586   1.410       .  A
C579        C588   1.399       .  A
C579        C580   1.401       .  A
C580        C581   1.395       .  A
C580        H591   1.084       .  S
C581        C582   1.402       .  A
C581        H592   1.084       .  S
C582        C583   1.397       .  A
C583        C584   1.403       .  A
C583        H593   1.085       .  S
C584        C585   1.410       .  A
C585        H594   1.084       .  S
C586        C587   1.410       .  A
C586        H595   1.084       .  S
C587        C588   1.403       .  A
C588        H596   1.085       .  S
C597        C598   1.395       .  A
C597        C602   1.402       .  A
C597        H613   1.084       .  S
C598        C599   1.403       .  A
C598        H614   1.084       .  S
C599        C609   1.396       .  A
C599        C600   1.409       .  A
C600        C606   1.412       .  A
C600        C601   1.410       .  A
C601        C603   1.412       .  A
C601        C602   1.411       .  A
C602        C610   1.397       .  A
C603        C612   1.405       .  A
C603        C604   1.404       .  A
C604        C605   1.401       .  A
C604        H615   1.083       .  S
C605        C606   1.404       .  A
C605        H616   1.083       .  S
C606        C607   1.406       .  A
C607        C608   1.408       .  A
C607        H617   1.084       .  S
C608        C609   1.408       .  A
C609        H618   1.084       .  S
C610        C611   1.405       .  A
C610        H619   1.085       .  S
C611        C612   1.406       .  A
C612        H620   1.084       .  S
C621        C622   1.399       .  A
C621        C626   1.404       .  A
C621        H637   1.084       .  S
C622        C623   1.403       .  A
C622        H638   1.084       .  S
C623        C633   1.404       .  A
C623        C624   1.413       .  A
C624        C630   1.412   1_565  A
C624        C625   1.412       .  A
C625        C627   1.412   1_565  A
C625        C626   1.411       .  A
C626        C634   1.403       .  A
C627        C636   1.404       .  A
C627        C628   1.404       .  A
C628        C629   1.399       .  A
C628        H639   1.084       .  S
C629        C630   1.404       .  A
C629        H640   1.084       .  S
C630        C631   1.403       .  A
C631        C632   1.405   1_545  A
C631        H641   1.085       .  S
C632        C633   1.403       .  A
C633        H642   1.085       .  S
C634        C635   1.407       .  A
C634        H643   1.084       .  S
C635        C636   1.407   1_565  A
C636        H644   1.084       .  S
C645        C646   1.402       .  A
C645        C650   1.405       .  A
C645        H661   1.083       .  S
C646        C647   1.405       .  A
C646        H662   1.084       .  S
C647        C657   1.409       .  A
C647        C648   1.412   1_655  A
C648        C654   1.411       .  A
C648        C649   1.416   1_455  A
C649        C651   1.411   1_655  A
C649        C650   1.411       .  A
C650        C658   1.409       .  A
C651        C660   1.405       .  A
C651        C652   1.404       .  A
C652        C653   1.399       .  A
C652        H663   1.084       .  S
C653        C654   1.404       .  A
C653        H664   1.084       .  S
C654        C655   1.404       .  A
C655        C656   1.409       .  A
C655        H665   1.084       .  S
C656        C657   1.410   1_455  A
C657        H666   1.084       .  S
C658        C659   1.411       .  A
C658        H667   1.084       .  S
C659        C660   1.409   1_655  A
C660        H668   1.084       .  S
C669        C670   1.395       .  A
C669        C674   1.402   1_545  A
C669        H685   1.084       .  S
C670        C671   1.402   1_545  A
C670        H686   1.084       .  S
C671        C681   1.399       .  A
C671        C672   1.411       .  A
C672        C678   1.411       .  A
C672        C673   1.414       .  A
C673        C675   1.413       .  A
C673        C674   1.409       .  A
C674        C682   1.397       .  A
C675        C684   1.411       .  A
C675        C676   1.405       .  A
C676        C677   1.404       .  A
C676        H687   1.083       .  S
C677        C678   1.406       .  A
C677        H688   1.083       .  S
C678        C679   1.410       .  A
C679        C680   1.411       .  A
C679        H689   1.084       .  S
C680        C681   1.408       .  A
C681        H690   1.084   1_565  S
C682        C683   1.408       .  A
C682        H691   1.084   1_565  S
C683        C684   1.410       .  A
C684        H692   1.084       .  S
C693        C694   1.398       .  A
C693        C698   1.403   1_455  A
C693        H709   1.084       .  S
C694        C695   1.403   1_455  A
C694        H710   1.084       .  S
C695        C705   1.401   1_655  A
C695        C696   1.411       .  A
C696        C702   1.412       .  A
C696        C697   1.410       .  A
C697        C699   1.411       .  A
C697        C698   1.413       .  A
C698        C706   1.402       .  A
C699        C708   1.402       .  A
C699        C700   1.404       .  A
C700        C701   1.399       .  A
C700        H711   1.084       .  S
C701        C702   1.404       .  A
C701        H712   1.084       .  S
C702        C703   1.403       .  A
C703        C704   1.405       .  A
C703        H713   1.084       .  S
C704        C705   1.404   1_655  A
C705        H714   1.084       .  S
C706        C707   1.403       .  A
C706        H715   1.085   1_655  S
C707        C708   1.405       .  A
C708        H716   1.085       .  S
C717        C718   1.396       .  A
C717        C722   1.402       .  A
C717        H733   1.084       .  S
C718        C719   1.403       .  A
C718        H734   1.084       .  S
C719        C729   1.396       .  A
C719        C720   1.410       .  A
C720        C726   1.414       .  A
C720        C721   1.409       .  A
C721        C723   1.412       .  A
C721        C722   1.413       .  A
C722        C730   1.399       .  A
C723        C732   1.402       .  A
C723        C724   1.403       .  A
C724        C725   1.400       .  A
C724        H735   1.083       .  S
C725        C726   1.403       .  A
C725        H736   1.083       .  S
C726        C727   1.405       .  A
C727        C728   1.403       .  A
C727        H737   1.084       .  S
C728        C729   1.404       .  A
C729        H738   1.085       .  S
C730        C731   1.400       .  A
C730        H739   1.084       .  S
C731        C732   1.403       .  A
C732        H740   1.084       .  S
C741        C742   1.404       .  A
C741        C746   1.405       .  A
C741        H757   1.083       .  S
C742        C743   1.405       .  A
C742        H758   1.083       .  S
C743        C753   1.410       .  A
C743        C744   1.411       .  A
C744        C750   1.410       .  A
C744        C745   1.413       .  A
C745        C747   1.410       .  A
C745        C746   1.413       .  A
C746        C754   1.411       .  A
C747        C756   1.397       .  A
C747        C748   1.403       .  A
C748        C749   1.395       .  A
C748        H759   1.084       .  S
C749        C750   1.402       .  A
C749        H760   1.084       .  S
C750        C751   1.396       .  A
C751        C752   1.405       .  A
C751        H761   1.080       .  S
C752        C753   1.408       .  A
C753        H762   1.082       .  S
C754        C755   1.409       .  A
C754        H763   1.084       .  S
C755        C756   1.407       .  A
C756        H764   1.084       .  S
C765        C766   1.403       .  A
C765        C770   1.405       .  A
C765        H781   1.083       .  S
C766        C767   1.405       .  A
C766        H782   1.083       .  S
C767        C777   1.408       .  A
C767        C768   1.412       .  A
C768        C774   1.413       .  A
C768        C769   1.412       .  A
C769        C771   1.408       .  A
C769        C770   1.414       .  A
C770        C778   1.412       .  A
C771        C780   1.394       .  A
C771        C772   1.403       .  A
C772        C773   1.395       .  A
C772        H783   1.084       .  S
C773        C774   1.401       .  A
C773        H784   1.084       .  S
C774        C775   1.398       .  A
C775        C776   1.400       .  A
C775        H785   1.085       .  S
C776        C777   1.405       .  A
C777        H786   1.084       .  S
C778        C779   1.408       .  A
C778        H787   1.084       .  S
C779        C780   1.409       .  A
C780        H788   1.084       .  S
C789        C790   1.396       .  A
C789        C794   1.403       .  A
C789        H805   1.084       .  S
C790        C791   1.401       .  A
C790        H806   1.084       .  S
C791        C801   1.398       .  A
C791        C792   1.413       .  A
C792        C798   1.411       .  A
C792        C793   1.409       .  A
C793        C795   1.414       .  A
C793        C794   1.410       .  A
C794        C802   1.396       .  A
C795        C804   1.406       .  A
C795        C796   1.404       .  A
C796        C797   1.400       .  A
C796        H807   1.083       .  S
C797        C798   1.404       .  A
C797        H808   1.084       .  S
C798        C799   1.401       .  A
C799        C800   1.403       .  A
C799        H809   1.085       .  S
C800        C801   1.398       .  A
C801        H810   1.083       .  S
C802        C803   1.404       .  A
C802        H811   1.085       .  S
C803        C804   1.404       .  A
C804        H812   1.084       .  S
C813        C814   1.400       .  A
C813        C818   1.404       .  A
C813        H829   1.083       .  S
C814        C815   1.404       .  A
C814        H830   1.083       .  S
C815        C825   1.403       .  A
C815        C816   1.412       .  A
C816        C822   1.413       .  A
C816        C817   1.411       .  A
C817        C819   1.411       .  A
C817        C818   1.413       .  A
C818        C826   1.406       .  A
C819        C828   1.399       .  A
C819        C820   1.403       .  A
C820        C821   1.398       .  A
C820        H831   1.084       .  S
C821        C822   1.402       .  A
C821        H832   1.084       .  S
C822        C823   1.401       .  A
C823        C824   1.401       .  A
C823        H833   1.085       .  S
C824        C825   1.404       .  A
C825        H834   1.084       .  S
C826        C827   1.404       .  A
C826        H835   1.084       .  S
C827        C828   1.405       .  A
C828        H836   1.085       .  S
C837        C838   1.399       .  A
C837        C842   1.403       .  A
C837        H853   1.084       .  S
C838        C839   1.403       .  A
C838        H854   1.083       .  S
C839        C849   1.406       .  A
C839        C840   1.414       .  A
C840        C846   1.411       .  A
C840        C841   1.414       .  A
C841        C843   1.414       .  A
C841        C842   1.411       .  A
C842        C850   1.401       .  A
C843        C852   1.406       .  A
C843        C844   1.404       .  A
C844        C845   1.401       .  A
C844        H855   1.084       .  S
C845        C846   1.405       .  A
C845        H856   1.084       .  S
C846        C847   1.405       .  A
C847        C848   1.407       .  A
C847        H857   1.085       .  S
C848        C849   1.403       .  A
C849        H858   1.084       .  S
C850        C851   1.405       .  A
C850        H859   1.084       .  S
C851        C852   1.404       .  A
C852        H860   1.083       .  S
C861        C862   1.401       .  A
C861        C866   1.404       .  A
C861        H877   1.084       .  S
C862        C863   1.404       .  A
C862        H878   1.083       .  S
C863        C873   1.408       .  A
C863        C864   1.413       .  A
C864        C870   1.408       .  A
C864        C865   1.409       .  A
C865        C867   1.413       .  A
C865        C866   1.411       .  A
C866        C874   1.403       .  A
C867        C876   1.395       .  A
C867        C868   1.400       .  A
C868        C869   1.394       .  A
C868        H879   1.084       .  S
C869        C870   1.403       .  A
C869        H880   1.084       .  S
C870        C871   1.393       .  A
C871        C872   1.409       .  A
C871        H881   1.084       .  S
C872        C873   1.408       .  A
C873        H882   1.084       .  S
C874        C875   1.403       .  A
C874        H883   1.078       .  S
C875        C876   1.399       .  A
C876        H884   1.085       .  S
C885        C886   1.401       .  A
C885        C890   1.405       .  A
C885        H901   1.084       .  S
C886        C887   1.404       .  A
C886        H902   1.084       .  S
C887        C897   1.404       .  A
C887        C888   1.413       .  A
C888        C894   1.412       .  A
C888        C889   1.407       .  A
C889        C891   1.411       .  A
C889        C890   1.411       .  A
C890        C898   1.404       .  A
C891        C900   1.394       .  A
C891        C892   1.401       .  A
C892        C893   1.393       .  A
C892        H903   1.084       .  S
C893        C894   1.400       .  A
C893        H904   1.084       .  S
C894        C895   1.393       .  A
C895        C896   1.397       .  A
C895        H905   1.085       .  S
C896        C897   1.402       .  A
C897        H906   1.084       .  S
C898        C899   1.409       .  A
C898        H907   1.084       .  S
C899        C900   1.404       .  A
C900        H908   1.084       .  S
C909        C910   1.396       .  A
C909        C914   1.401       .  A
C909        H925   1.084       .  S
C910        C911   1.403       .  A
C910        H926   1.084       .  S
C911        C921   1.396       .  A
C911        C912   1.409       .  A
C912        C918   1.413       .  A
C912        C913   1.409       .  A
C913        C915   1.412       .  A
C913        C914   1.413       .  A
C914        C922   1.397       .  A
C915        C924   1.401       .  A
C915        C916   1.403       .  A
C916        C917   1.400       .  A
C916        H927   1.084       .  S
C917        C918   1.404       .  A
C917        H928   1.083       .  S
C918        C919   1.405       .  A
C919        C920   1.407       .  A
C919        H929   1.084       .  S
C920        C921   1.409       .  A
C921        H930   1.084   1_545  S
C922        C923   1.400       .  A
C922        H931   1.085       .  S
C923        C924   1.400       .  A
C924        H932   1.084       .  S
C933        C934   1.399       .  A
C933        C938   1.404       .  A
C933        H949   1.084       .  S
C934        C935   1.403       .  A
C934        H950   1.084       .  S
C935        C945   1.404       .  A
C935        C936   1.414       .  A
C936        C942   1.411       .  A
C936        C937   1.411       .  A
C937        C939   1.414       .  A
C937        C938   1.410       .  A
C938        C946   1.401       .  A
C939        C948   1.405       .  A
C939        C940   1.403       .  A
C940        C941   1.399       .  A
C940        H951   1.083       .  S
C941        C942   1.403       .  A
C941        H952   1.084       .  S
C942        C943   1.401       .  A
C943        C944   1.402       .  A
C943        H953   1.085       .  S
C944        C945   1.402       .  A
C945        H954   1.085       .  S
C946        C947   1.406       .  A
C946        H955   1.085       .  S
C947        C948   1.403       .  A
C948        H956   1.084       .  S
C957        C958   1.400       .  A
C957        C962   1.404       .  A
C957        H973   1.083       .  S
C958        C959   1.404       .  A
C958        H974   1.083       .  S
C959        C969   1.406       .  A
C959        C960   1.412       .  A
C960        C966   1.410       .  A
C960        C961   1.411       .  A
C961        C963   1.411       .  A
C961        C962   1.411       .  A
C962        C970   1.404       .  A
C963        C972   1.400       .  A
C963        C964   1.402       .  A
C964        C965   1.397       .  A
C964        H975   1.084       .  S
C965        C966   1.403       .  A
C965        H976   1.084       .  S
C966        C967   1.398       .  A
C967        C968   1.409       .  A
C967        H977   1.084       .  S
C968        C969   1.408       .  A
C969        H978   1.084       .  S
C970        C971   1.407       .  A
C970        H979   1.084       .  S
C971        C972   1.406       .  A
C972        H980   1.084       .  S
C981        C982   1.401       .  A
C981        C986   1.404       .  A
C981        H997   1.083       .  S
C982        C983   1.404       .  A
C982        H998   1.083       .  S
C983        C993   1.404       .  A
C983        C984   1.412       .  A
C984        C990   1.412       .  A
C984        C985   1.410       .  A
C985        C987   1.411       .  A
C985        C986   1.413       .  A
C986        C994   1.406       .  A
C987        C996   1.397       .  A
C987        C988   1.403       .  A
C988        C989   1.396       .  A
C988        H999   1.084       .  S
C989        C990   1.402       .  A
C989       H1000   1.084       .  S
C990        C991   1.398       .  A
C991        C992   1.398       .  A
C991       H1001   1.079       .  S
C992        C993   1.404       .  A
C993       H1002   1.084       .  S
C994        C995   1.404       .  A
C994       H1003   1.084       .  S
C995        C996   1.404       .  A
C996       H1004   1.085       .  S
C1005      C1006   1.400       .  A
C1005      C1010   1.403       .  A
C1005      H1021   1.084       .  S
C1006      C1007   1.404       .  A
C1006      H1022   1.084       .  S
C1007      C1017   1.404       .  A
C1007      C1008   1.412       .  A
C1008      C1014   1.410       .  A
C1008      C1009   1.409       .  A
C1009      C1011   1.413       .  A
C1009      C1010   1.412       .  A
C1010      C1018   1.402       .  A
C1011      C1020   1.397       .  A
C1011      C1012   1.401       .  A
C1012      C1013   1.395       .  A
C1012      H1023   1.084       .  S
C1013      C1014   1.403       .  A
C1013      H1024   1.084       .  S
C1014      C1015   1.396       .  A
C1015      C1016   1.408       .  A
C1015      H1025   1.084       .  S
C1016      C1017   1.407       .  A
C1017      H1026   1.084       .  S
C1018      C1019   1.401       .  A
C1018      H1027   1.084       .  S
C1019      C1020   1.399       .  A
C1020      H1028   1.085       .  S
