geometry optimzed in LAMMPS
_audit_creation_date              2020-11-30 
_audit_creation_method            'lammps2cif' 
_symmetry_space_group_name_H-M    'P1' 
_symmetry_Int_Tables_number       1 
_symmetry_cell_setting            triclinic 
loop_ 
_symmetry_equiv_pos_as_xyz 
  x,y,z 
_cell_length_a                    44.24434837 
_cell_length_b                    24.727536702576096 
_cell_length_c                    26.953032323269174 
_cell_angle_alpha                 89.50763395581214 
_cell_angle_beta                  90.02298148389359 
_cell_angle_gamma                 90.11000161434565 
loop_ 
_atom_site_label 
_atom_site_type_symbol 
_atom_site_fract_x 
_atom_site_fract_y 
_atom_site_fract_z 
_atom_site_charge 
O1          O  0.47223658  0.00486576  0.03374055    -0.73000
O2          O  0.06221034  0.00542084  0.02990244    -0.73900
O3          O  0.01621735  0.08497291  0.02004874    -0.62600
O4          O  0.01781739  0.92377675  0.03869218    -0.71000
O5          O  0.00227566  0.91377797  0.45878573    -0.70500
O6          O  0.49567316  0.07651744  0.44626233    -0.61800
O7          O  0.04496874  0.99939352  0.44871124    -0.74300
O8          O  0.45403821  0.99104638  0.45722035    -0.73100
Cu9        Cu  0.01697206  0.00473876  0.03210181     1.04600
Cu10       Cu  0.49899164  0.99576506  0.45234591     1.04300
C11         C  0.45750384  0.00280253  0.99298901     0.93200
C12         C  0.07677862  0.99800886  0.98961224     0.92400
C13         C  0.51821137  0.10717995  0.98032789     0.84500
C14         C  0.00438050  0.89351143  0.50244059     0.90800
O15         O  0.50291186  0.92795592  0.18839948    -0.73000
O16         O  0.49947233  0.08849386  0.21040219    -0.73900
O17         O  0.04640719  0.00715475  0.19873335    -0.62600
O18         O  0.45544658  0.00526287  0.19922485    -0.71000
O19         O  0.45534441  0.99266118  0.28079870    -0.70500
O20         O  0.04596179  0.99634128  0.28050322    -0.61800
O21         O  0.49862704  0.07494250  0.29197999    -0.74300
O22         O  0.50147336  0.91475746  0.26998393    -0.73100
Cu23       Cu  0.50098187  0.00875258  0.19654919     1.04600
Cu24       Cu  0.50045216  0.99442297  0.28375527     1.04300
C25         C  0.50259223  0.89611617  0.22594890     0.93200
C26         C  0.49830482  0.10688074  0.25454933     0.92400
C27         C  0.06053348  0.00273043  0.23986234     0.84500
C28         C  0.44102566  0.99853528  0.23997593     0.90800
O29         O  0.29554257  0.99270526  0.45613388    -0.73000
O30         O  0.20517415  0.00375764  0.45162104    -0.73900
O31         O  0.25398529  0.07929558  0.45347972    -0.62600
O32         O  0.24675321  0.91734354  0.45396880    -0.71000
O33         O  0.26752946  0.91599274  0.03542077    -0.70500
O34         O  0.26483526  0.07906525  0.03511845    -0.61800
O35         O  0.22131927  0.99541251  0.03419817    -0.74300
O36         O  0.31211501  0.99996966  0.03587495    -0.73100
Cu37       Cu  0.25042255  0.99828166  0.45094658     1.04600
Cu38       Cu  0.26647462  0.99755757  0.03806536     1.04300
C39         C  0.30942239  0.99404996  0.49772631     0.93200
C40         C  0.19019813  0.00268222  0.49215170     0.92400
C41         C  0.25278333  0.10494770  0.49433844     0.84500
C42         C  0.24687445  0.89142914  0.49512493     0.90800
O43         O  0.25404595  0.08138235  0.19968593    -0.73000
O44         O  0.24747977  0.91890674  0.19937376    -0.73900
O45         O  0.20555913  0.00521990  0.19912688    -0.62600
O46         O  0.29594030  0.99544939  0.19988767    -0.71000
O47         O  0.29597334  0.99874048  0.28207898    -0.70500
O48         O  0.20540620  0.99982637  0.28129938    -0.61800
O49         O  0.25038041  0.91767817  0.28161060    -0.74300
O50         O  0.25097484  0.08058732  0.28191648    -0.73100
Cu51       Cu  0.25076062  0.00023709  0.19663275     1.04600
Cu52       Cu  0.25066246  0.99914861  0.28460861     1.04300
C53         C  0.25324942  0.10653821  0.24085572     0.93200
C54         C  0.24826874  0.89269636  0.24041177     0.92400
C55         C  0.19112508  0.00324759  0.24016801     0.84500
C56         C  0.31032826  0.99678350  0.24099401     0.90800
O57         O  0.46723070  0.71554244  0.48909487    -0.73000
O58         O  0.47236802  0.55370224  0.49365026    -0.73900
O59         O  0.47081254  0.63837803  0.06518085    -0.62600
O60         O  0.46936927  0.63316067  0.41758700    -0.71000
O61         O  0.02241944  0.63737055  0.41958624    -0.70500
O62         O  0.02393365  0.63704315  0.06866757    -0.61800
O63         O  0.02500890  0.55679043  0.49479303    -0.74300
O64         O  0.01922233  0.71946646  0.49254648    -0.73100
Cu65       Cu  0.46815980  0.63448660  0.49194149     1.04600
Cu66       Cu  0.02405735  0.63836109  0.49388052     1.04300
C67         C  0.99315149  0.74146220  0.48916477     0.93200
C68         C  0.49821218  0.53086676  0.49239954     0.92400
C69         C  0.99869966  0.63634308  0.09172271     0.84500
C70         C  0.99750761  0.63276445  0.39604764     0.90800
O71         O  0.46969621  0.63628654  0.16705836    -0.73000
O72         O  0.46917319  0.63288411  0.31625272    -0.73900
O73         O  0.46601399  0.71545177  0.24354396    -0.62600
O74         O  0.47247080  0.55356720  0.24124245    -0.71000
O75         O  0.02662951  0.55623886  0.24472622    -0.70500
O76         O  0.01923964  0.71846039  0.24348231    -0.61800
O77         O  0.02271534  0.63718125  0.31851249    -0.74300
O78         O  0.02340752  0.63767048  0.16980736    -0.73100
Cu79       Cu  0.46756846  0.63432340  0.24185503     1.04600
Cu80       Cu  0.02476895  0.63762769  0.24411277     1.04300
C81         C  0.49493051  0.63854909  0.14398148     0.93200
C82         C  0.49418047  0.63715984  0.33960900     0.92400
C83         C  0.48995021  0.74433571  0.24256593     0.84500
C84         C  0.49848765  0.53130398  0.24267739     0.90800
O85         O  0.23191373  0.63675150  0.44643731    -0.73000
O86         O  0.22924834  0.63322287  0.09769615    -0.73900
O87         O  0.22806381  0.71599446  0.02507536    -0.62600
O88         O  0.22798664  0.55555780  0.52121698    -0.71000
O89         O  0.27808753  0.55066345  0.52255963    -0.70500
O90         O  0.28328394  0.71291746  0.52504020    -0.61800
O91         O  0.27941168  0.63402315  0.09466545    -0.74300
O92         O  0.28205628  0.63333844  0.44859807    -0.73100
Cu93       Cu  0.22542103  0.63479861  0.02349811     1.04600
Cu94       Cu  0.28232609  0.63164096  0.52351525     1.04300
C95         C  0.25731542  0.63523484  0.42409176     0.93200
C96         C  0.25487647  0.63389501  0.11959183     0.92400
C97         C  0.25918085  0.74110349  0.52249979     0.84500
C98         C  0.25225107  0.52753314  0.52202314     0.90800
O99         O  0.28270282  0.63244494  0.34626274    -0.73000
O100        O  0.28127471  0.63414798  0.19672088    -0.73900
O101        O  0.28420823  0.71478288  0.27244148    -0.62600
O102        O  0.27996590  0.55192931  0.27144503    -0.71000
O103        O  0.22987157  0.55646525  0.27361159    -0.70500
O104        O  0.23410483  0.71918409  0.26974104    -0.61800
O105        O  0.23109963  0.63629560  0.19803338    -0.74300
O106        O  0.23263666  0.63878753  0.34623298    -0.73100
Cu107      Cu  0.28383277  0.63323068  0.27160168     1.04600
Cu108      Cu  0.23021570  0.63785790  0.27199832     1.04300
C109        C  0.25767583  0.63555515  0.36968228     0.93200
C110        C  0.25589198  0.63479149  0.17395862     0.92400
C111        C  0.25989516  0.74253968  0.27099806     0.84500
C112        C  0.25416471  0.52859451  0.27263191     0.90800
O113        O  0.47619113  0.36557382  0.06964343    -0.73000
O114        O  0.48077885  0.36192965  0.41837465    -0.73900
O115        O  0.48193953  0.28071615  0.49329532    -0.62600
O116        O  0.47591319  0.44324033  0.49170470    -0.71000
O117        O  0.02816850  0.44603610  0.49487363    -0.70500
O118        O  0.03216634  0.28410398  0.50012405    -0.61800
O119        O  0.03298433  0.36304247  0.42197642    -0.74300
O120        O  0.03013692  0.36230312  0.06630203    -0.73100
Cu121      Cu  0.47700314  0.36176415  0.49223966     1.04600
Cu122      Cu  0.02896014  0.36300959  0.99180977     1.04300
C123        C  0.50180879  0.36580410  0.09154969     0.93200
C124        C  0.50622413  0.36392630  0.39610824     0.92400
C125        C  0.50794373  0.25871330  0.49784027     0.84500
C126        C  0.50009971  0.47163089  0.49234384     0.90800
O127        O  0.48348013  0.28085265  0.24492130    -0.73000
O128        O  0.47676176  0.44323468  0.24429280    -0.73900
O129        O  0.47850314  0.36228804  0.17058558    -0.62600
O130        O  0.48122757  0.36175921  0.31874737    -0.71000
O131        O  0.03450077  0.36257854  0.31851112    -0.70500
O132        O  0.03282211  0.36661310  0.16834558    -0.61800
O133        O  0.03101545  0.44565784  0.24453095    -0.74300
O134        O  0.03694269  0.28367917  0.24057808    -0.73100
Cu135      Cu  0.47825967  0.36181294  0.24484039     1.04600
Cu136      Cu  0.03564260  0.36482210  0.24311059     1.04300
C137        C  0.50959312  0.25922284  0.24106955     0.93200
C138        C  0.50078390  0.47205999  0.24364974     0.92400
C139        C  0.50300458  0.36644589  0.14585210     0.84500
C140        C  0.50646377  0.36404611  0.34159884     0.90800
O141        O  0.21901011  0.28304571  0.52576054    -0.73000
O142        O  0.22456718  0.44512212  0.52219108    -0.73900
O143        O  0.22188473  0.36330409  0.44891589    -0.62600
O144        O  0.22384327  0.36236005  0.09769481    -0.71000
O145        O  0.27399978  0.35876453  0.09738039    -0.70500
O146        O  0.27203911  0.35960990  0.44878776    -0.61800
O147        O  0.27466455  0.44002500  0.52318726    -0.74300
O148        O  0.26906253  0.27725974  0.52224827    -0.73100
Cu149      Cu  0.22018959  0.36424322  0.52367411     1.04600
Cu150      Cu  0.27378442  0.35843145  0.52292313     1.04300
C151        C  0.24305650  0.25468729  0.52435450     0.93200
C152        C  0.25042895  0.46814746  0.52246055     0.92400
C153        C  0.24697438  0.36159348  0.42542159     0.84500
C154        C  0.24896252  0.36099677  0.12095007     0.90800
O155        O  0.26973529  0.27804390  0.27214973    -0.73000
O156        O  0.27632591  0.44072708  0.27376764    -0.73900
O157        O  0.27228930  0.35818330  0.34786457    -0.62600
O158        O  0.27387214  0.36026352  0.19896236    -0.71000
O159        O  0.22372620  0.36436565  0.19849822    -0.70500
O160        O  0.22229145  0.36606405  0.34730191    -0.61800
O161        O  0.22626542  0.44644339  0.27182239    -0.74300
O162        O  0.21968286  0.28433092  0.27475182    -0.73100
Cu163      Cu  0.27483243  0.35910930  0.27330409     1.04600
Cu164      Cu  0.22126385  0.36557346  0.27297701     1.04300
C165        C  0.24364941  0.25572641  0.27338280     0.93200
C166        C  0.25222156  0.46917090  0.27276045     0.92400
C167        C  0.24716925  0.36195339  0.37101397     0.84500
C168        C  0.24888468  0.36196537  0.17531615     0.90800
C169        C  0.25570411  0.16600329  0.24069734    -0.16400
C170        C  0.24100246  0.19638384  0.27384589    -0.31600
H171        H  0.26888489  0.18542041  0.21152705     0.12600
H172        H  0.22538397  0.17756693  0.29990169     0.13200
C173        C  0.24614159  0.83311102  0.23990470    -0.16400
C174        C  0.26182294  0.80207147  0.27185530    -0.31600
H175        H  0.23261007  0.81423736  0.21116154     0.12600
H176        H  0.27774296  0.82064846  0.29728663     0.13200
C177        C  0.25539507  0.16436308  0.49349052    -0.16400
C178        C  0.24055169  0.19535464  0.52593042    -0.31600
H179        H  0.26867792  0.18324650  0.46414912     0.12600
H180        H  0.23154982  0.17248706  0.04883873     0.13200
C181        C  0.24434124  0.83205044  0.49460150    -0.16400
C182        C  0.26146433  0.80052533  0.52391958    -0.31600
H183        H  0.22940289  0.81372147  0.46746919     0.12600
H184        H  0.23718133  0.82022079  0.04884162     0.13200
C185        C  0.49597702  0.16547697  0.26248406    -0.16400
C186        C  0.51246974  0.20039612  0.23556605    -0.31600
H187        H  0.48136765  0.18005723  0.29185235     0.12600
H188        H  0.03441038  0.17993346  0.21525873     0.14800
C189        C  0.50402275  0.83727556  0.21854100    -0.16400
C190        C  0.48726446  0.80341191  0.24628407    -0.31600
H191        H  0.51847137  0.82160686  0.18943956     0.12600
H192        H  0.97269182  0.81486389  0.27399598     0.13200
C193        C  0.39161378  0.99993063  0.28523680    -0.13400
C194        C  0.40759279  0.99782992  0.24019877     0.08800
C195        C  0.39131946  0.99528979  0.19554695    -0.13400
C196        C  0.35974725  0.99457182  0.19589626    -0.13400
C197        C  0.34376203  0.99666197  0.24088091     0.08800
C198        C  0.36003399  0.99947267  0.28557415    -0.13400
H199        H  0.40350397  0.00227333  0.32028837     0.12800
H200        H  0.40298131  0.99351895  0.16033211     0.12800
H201        H  0.34783372  0.99243797  0.16089122     0.12800
H202        H  0.34839282  0.00142993  0.32085068     0.12800
C203        C  0.11002782  0.99784827  0.28466703    -0.13400
C204        C  0.09393097  0.00437113  0.24013704     0.08800
C205        C  0.11006397  0.01138066  0.19559685    -0.13400
C206        C  0.14162920  0.01138314  0.19559440    -0.13400
C207        C  0.15772246  0.00446700  0.24013011     0.08800
C208        C  0.14158425  0.99794944  0.28468323    -0.13400
H209        H  0.09823449  0.99217278  0.31949633     0.12800
H210        H  0.09830480  0.01655958  0.16065369     0.12800
H211        H  0.15340537  0.01665245  0.16067887     0.12800
H212        H  0.15334108  0.99237137  0.31954668     0.12800
C213        C  0.51063554  0.19969238  0.50311780    -0.16400
C214        C  0.49300010  0.16562872  0.47775037    -0.31600
H215        H  0.98574961  0.17808752  0.02538469     0.12600
H216        H  0.47733131  0.18112195  0.45004243     0.13200
C217        C  0.00765212  0.83476503  0.50902175    -0.16400
C218        C  0.99034036  0.80038090  0.48348106    -0.31600
H219        H  0.03315916  0.81694210  0.03336645     0.12600
H220        H  0.47225846  0.81971000  0.46006458     0.13200
C221        C  0.39063840  0.98299608  0.45516836    -0.13400
C222        C  0.40670655  0.99293898  0.49916819     0.08800
C223        C  0.40819770  0.00270080  0.03883399    -0.13400
C224        C  0.37659007  0.00217678  0.03938682    -0.13400
C225        C  0.34285172  0.99269216  0.49867122     0.08800
C226        C  0.35910325  0.98294309  0.45491701    -0.13400
H227        H  0.40242277  0.97560223  0.42068694     0.12800
H228        H  0.42023559  0.00239422  0.07379951     0.12800
H229        H  0.36501783  0.00154003  0.07472543     0.12800
H230        H  0.34745805  0.97542998  0.42029348     0.12800
C231        C  0.12596368  0.99971413  0.03550535    -0.13400
C232        C  0.09296252  0.00677675  0.48942488     0.08800
C233        C  0.10939091  0.00192558  0.44510241    -0.13400
C234        C  0.14099982  0.00105387  0.44584896    -0.13400
C235        C  0.15679043  0.00480454  0.49097915     0.08800
C236        C  0.15751197  0.99868412  0.03622621    -0.13400
H237        H  0.11394861  0.00242183  0.07036866     0.12800
H238        H  0.09781625  0.99831271  0.40990438     0.12800
H239        H  0.15306127  0.99682854  0.41119733     0.12800
H240        H  0.16901123  0.00083329  0.07162105     0.12800
O241        O  0.45496149  0.00136191  0.53885634    -0.73000
O242        O  0.04534317  0.00934043  0.53040095    -0.73900
O243        O  0.99753617  0.08436922  0.52274331    -0.62600
O244        O  0.00400062  0.92369509  0.54058963    -0.71000
O245        O  0.01510342  0.91353729  0.95702056    -0.70500
O246        O  0.51923794  0.07714224  0.94204550    -0.61800
O247        O  0.06262605  0.99133219  0.94875264    -0.74300
O248        O  0.47152965  0.00004733  0.95163558    -0.73100
Cu249      Cu  0.00040416  0.00435033  0.53445717     1.04600
Cu250      Cu  0.51675302  0.99587899  0.94795482     1.04300
C251        C  0.44013798  0.99500986  0.49853903     0.93200
C252        C  0.05952121  0.00542267  0.48934396     0.92400
C253        C  0.49580140  0.10678626  0.48436767     0.84500
C254        C  0.01629739  0.89329400  0.00080629     0.90800
O255        O  0.48040855  0.92561442  0.69023031    -0.73000
O256        O  0.48303417  0.08671463  0.70949691    -0.73900
O257        O  0.02695249  0.00365125  0.70304528    -0.62600
O258        O  0.43633561  0.00767712  0.70007508    -0.71000
O259        O  0.43647119  0.99117383  0.78107091    -0.70500
O260        O  0.02664735  0.99715901  0.78515262    -0.61800
O261        O  0.47962840  0.07475667  0.79106757    -0.74300
O262        O  0.48354669  0.91377933  0.77184728    -0.73100
Cu263      Cu  0.48178054  0.00656869  0.69709298     1.04600
Cu264      Cu  0.48164112  0.99381483  0.78438366     1.04300
C265        C  0.48197198  0.89438742  0.72810344     0.93200
C266        C  0.48119142  0.10605164  0.75322149     0.92400
C267        C  0.04117611  0.00010762  0.74424493     0.84500
C268        C  0.42202024  0.99921671  0.74064245     0.90800
O269        O  0.31258813  0.00071840  0.95360828    -0.73000
O270        O  0.22220766  0.99572335  0.95193183    -0.73900
O271        O  0.26644417  0.07964620  0.95277617    -0.62600
O272        O  0.26933247  0.91677873  0.95309262    -0.71000
O273        O  0.24858385  0.91654398  0.53631755    -0.70500
O274        O  0.24992387  0.07953634  0.53559414    -0.61800
O275        O  0.20394086  0.99959848  0.53381955    -0.74300
O276        O  0.29456911  0.99695511  0.53826977    -0.73100
Cu277      Cu  0.26759780  0.99820454  0.95002869     1.04600
Cu278      Cu  0.24918800  0.99811408  0.53891487     1.04300
C279        C  0.32673212  0.00100527  0.99489121     0.93200
C280        C  0.20739840  0.99527946  0.99265686     0.92400
C281        C  0.26513365  0.10494762  0.99385853     0.84500
C282        C  0.26892271  0.89078592  0.99425317     0.90800
O283        O  0.23013202  0.07928443  0.70356878    -0.73000
O284        O  0.23138125  0.91631538  0.70196979    -0.73900
O285        O  0.18599488  0.99672341  0.70327576    -0.62600
O286        O  0.27652101  0.99908229  0.70211426    -0.71000
O287        O  0.27732729  0.99700934  0.78437948    -0.70500
O288        O  0.18658101  0.99523585  0.78554114    -0.61800
O289        O  0.23301275  0.91465794  0.78431498    -0.74300
O290        O  0.23195171  0.07775615  0.78589594    -0.73100
Cu291      Cu  0.23105834  0.99789812  0.69988433     1.04600
Cu292      Cu  0.23218104  0.99609669  0.78792247     1.04300
C293        C  0.23082326  0.10413205  0.74491851     0.93200
C294        C  0.23245961  0.88989868  0.74288439     0.92400
C295        C  0.17190608  0.99590036  0.74460154     0.84500
C296        C  0.29129238  0.99824544  0.74291740     0.90800
O297        O  0.47143101  0.71835277  0.98787238    -0.73000
O298        O  0.47294105  0.55551373  0.99259196    -0.73900
O299        O  0.47072156  0.63623671  0.56665474    -0.62600
O300        O  0.47310122  0.63543143  0.91673643    -0.71000
O301        O  0.02445126  0.63717197  0.91959189    -0.70500
O302        O  0.02247897  0.63902514  0.56813000    -0.61800
O303        O  0.02579674  0.55586204  0.99445979    -0.74300
O304        O  0.02291546  0.71859030  0.99362146    -0.73100
Cu305      Cu  0.47032733  0.63686713  0.99064791     1.04600
Cu306      Cu  0.02605012  0.63730480  0.99419535     1.04300
C307        C  0.99744697  0.74275680  0.99069644     0.93200
C308        C  0.49828035  0.53072524  0.99275899     0.92400
C309        C  0.99743593  0.63777222  0.59159565     0.84500
C310        C  0.99939108  0.63495020  0.89606145     0.90800
O311        O  0.47170625  0.63732780  0.66799240    -0.73000
O312        O  0.47344063  0.63787690  0.81643377    -0.73900
O313        O  0.47364235  0.71918616  0.74112639    -0.62600
O314        O  0.47197671  0.55601478  0.74326884    -0.71000
O315        O  0.02306078  0.55544792  0.74235322    -0.70500
O316        O  0.02414044  0.71773179  0.74667750    -0.61800
O317        O  0.02426779  0.63412964  0.81816065    -0.74300
O318        O  0.02286695  0.63911688  0.66927118    -0.73100
Cu319      Cu  0.47092930  0.63765492  0.74221336     1.04600
Cu320      Cu  0.02533235  0.63659151  0.74389911     1.04300
C321        C  0.49657921  0.63776014  0.64406102     0.93200
C322        C  0.49858018  0.63654081  0.83973196     0.92400
C323        C  0.49906989  0.74379946  0.74295831     0.84500
C324        C  0.49696820  0.53012348  0.74283211     0.90800
O325        O  0.22527148  0.63645719  0.94857378    -0.73000
O326        O  0.22877378  0.63707600  0.59472598    -0.73900
O327        O  0.23329276  0.71827272  0.51940865    -0.62600
O328        O  0.22609608  0.55336970  0.02240127    -0.71000
O329        O  0.27625245  0.55168899  0.02135978    -0.70500
O330        O  0.27810420  0.71513455  0.01880612    -0.61800
O331        O  0.27880366  0.63038183  0.59775090    -0.74300
O332        O  0.27539912  0.63286828  0.94622673    -0.73100
Cu333      Cu  0.22875222  0.63708816  0.52033879     1.04600
Cu334      Cu  0.27904769  0.63333528  0.02012279     1.04300
C335        C  0.24993782  0.63471944  0.92396430     0.93200
C336        C  0.25325495  0.63361230  0.61962130     0.92400
C337        C  0.25324307  0.74115696  0.02231579     0.84500
C338        C  0.25085124  0.52685760  0.02189321     0.90800
O339        O  0.27472621  0.63301716  0.84651435    -0.73000
O340        O  0.27675905  0.63391642  0.69848600    -0.73900
O341        O  0.27605182  0.71519970  0.77287048    -0.62600
O342        O  0.27480029  0.55186810  0.77268079    -0.71000
O343        O  0.22463668  0.55314647  0.77247178    -0.70500
O344        O  0.22594999  0.71603345  0.76823882    -0.61800
O345        O  0.22657369  0.63341318  0.69613799    -0.74300
O346        O  0.22456678  0.63600619  0.84567235    -0.73100
Cu347      Cu  0.27730673  0.63346641  0.77268215     1.04600
Cu348      Cu  0.22364775  0.63467733  0.77061053     1.04300
C349        C  0.24955988  0.63463776  0.86953470     0.93200
C350        C  0.25209872  0.63358672  0.67392376     0.92400
C351        C  0.25116154  0.74124382  0.77010390     0.84500
C352        C  0.24947167  0.52682454  0.77272990     0.90800
O353        O  0.47636119  0.36201943  0.56657290    -0.73000
O354        O  0.47297660  0.36183719  0.92052385    -0.73900
O355        O  0.47497406  0.28252556  0.99833410    -0.62600
O356        O  0.47392530  0.44496835  0.99325329    -0.71000
O357        O  0.02697798  0.44459590  0.99245875    -0.70500
O358        O  0.02713020  0.28130836  0.99139460    -0.61800
O359        O  0.02453885  0.36383752  0.91805841    -0.74300
O360        O  0.02697187  0.36670751  0.57091554    -0.73100
Cu361      Cu  0.47275307  0.36367915  0.99541920     1.04600
Cu362      Cu  0.03183069  0.36512139  0.49701601     1.04300
C363        C  0.50071150  0.36617019  0.59164074     0.93200
C364        C  0.49770458  0.36276405  0.89598659     0.92400
C365        C  0.50008054  0.25724710  0.99652604     0.84500
C366        C  0.49881703  0.47123847  0.99260287     0.90800
O367        O  0.47374180  0.28147208  0.74350714    -0.73000
O368        O  0.47213264  0.44448922  0.74284682    -0.73900
O369        O  0.47403259  0.36346022  0.66839155    -0.62600
O370        O  0.47222743  0.36259757  0.81800232    -0.71000
O371        O  0.02304040  0.36266757  0.81842327    -0.70500
O372        O  0.02448845  0.36582768  0.67070553    -0.61800
O373        O  0.02308941  0.44538495  0.74506472    -0.74300
O374        O  0.02410714  0.28313658  0.74265276    -0.73100
Cu375      Cu  0.47121144  0.36292023  0.74320025     1.04600
Cu376      Cu  0.02535170  0.36429782  0.74441345     1.04300
C377        C  0.49911740  0.25695043  0.74129603     0.93200
C378        C  0.49705373  0.47069556  0.74382370     0.92400
C379        C  0.49948408  0.36578472  0.64592557     0.84500
C380        C  0.49730986  0.36235661  0.84155040     0.90800
O381        O  0.22291414  0.27907851  0.02588835    -0.73000
O382        O  0.22467061  0.44244121  0.02173407    -0.73900
O383        O  0.22326358  0.35939492  0.94914194    -0.62600
O384        O  0.22231723  0.36475758  0.59804306    -0.71000
O385        O  0.27235055  0.35756274  0.59739273    -0.70500
O386        O  0.27346760  0.36015461  0.94844834    -0.61800
O387        O  0.27483042  0.44075489  0.02278766    -0.74300
O388        O  0.27303821  0.27799705  0.02193873    -0.73100
Cu389      Cu  0.22190838  0.36084728  0.02359260     1.04600
Cu390      Cu  0.27558049  0.35932767  0.02267673     1.04300
C391        C  0.24777788  0.25292637  0.02386696     0.93200
C392        C  0.25007134  0.46726601  0.02209335     0.92400
C393        C  0.24824434  0.35969460  0.92540091     0.84500
C394        C  0.24746340  0.36097372  0.62113521     0.90800
O395        O  0.27246417  0.27806517  0.77551531    -0.73000
O396        O  0.27373811  0.44093965  0.77210925    -0.73900
O397        O  0.27314520  0.36034178  0.84765342    -0.62600
O398        O  0.27283773  0.35862685  0.69886209    -0.71000
O399        O  0.22267459  0.36196289  0.69899479    -0.70500
O400        O  0.22294230  0.35903937  0.84770209    -0.61800
O401        O  0.22358425  0.44210313  0.77387878    -0.74300
O402        O  0.22232070  0.27872717  0.77207440    -0.73100
Cu403      Cu  0.27479060  0.35944233  0.77345768     1.04600
Cu404      Cu  0.22111394  0.36047999  0.77319700     1.04300
C405        C  0.24728489  0.25278162  0.77402489     0.93200
C406        C  0.24889325  0.46720356  0.77294756     0.92400
C407        C  0.24806873  0.35965129  0.87107458     0.84500
C408        C  0.24770176  0.36049570  0.67551140     0.90800
C409        C  0.22986313  0.16381633  0.74492810    -0.16400
C410        C  0.24732533  0.19308955  0.77538666    -0.31600
H411        H  0.21605031  0.18419098  0.71717942     0.12600
H412        H  0.26352480  0.17278881  0.79943303     0.13200
C413        C  0.23244496  0.83024754  0.74206924    -0.16400
C414        C  0.25161926  0.80097015  0.77007314    -0.31600
H415        H  0.21735326  0.81004156  0.71634715     0.12600
H416        H  0.26876301  0.82132130  0.79198337     0.13200
C417        C  0.26475659  0.16463064  0.99329913    -0.16400
C418        C  0.24731796  0.19322545  0.02430164    -0.31600
H419        H  0.27817462  0.18559404  0.96535929     0.12600
H420        H  0.22483022  0.17702033  0.55211885     0.13200
C421        C  0.27036481  0.83114182  0.99380786    -0.16400
C422        C  0.25324684  0.80077174  0.02430112    -0.31600
H423        H  0.28404038  0.81179948  0.96559529     0.12600
H424        H  0.27868198  0.81862461  0.54731211     0.13200
C425        C  0.48042880  0.16504170  0.76012496    -0.16400
C426        C  0.50006201  0.19765952  0.73654823    -0.31600
H427        H  0.46441286  0.18170740  0.78641848     0.12600
H428        H  0.01850802  0.17967719  0.71761757     0.14800
C429        C  0.48143009  0.83539881  0.72129029    -0.16400
C430        C  0.50015489  0.80307292  0.74692337    -0.31600
H431        H  0.46618931  0.81844209  0.69386630     0.12600
H432        H  0.01691797  0.82077822  0.77529871     0.13200
C433        C  0.37273914  0.99090645  0.78577152    -0.13400
C434        C  0.38856710  0.99884312  0.74106365     0.08800
C435        C  0.37211014  0.00663895  0.69700113    -0.13400
C436        C  0.34052288  0.00636617  0.69757055    -0.13400
C437        C  0.32472222  0.99854424  0.74226536     0.08800
C438        C  0.34117237  0.99088618  0.78637741    -0.13400
H439        H  0.38472937  0.98480848  0.82039544     0.12800
H440        H  0.38363405  0.01303858  0.66204896     0.12800
H441        H  0.32845127  0.01258457  0.66306995     0.12800
H442        H  0.32966803  0.98463865  0.82144126     0.12800
C443        C  0.09070812  0.99764811  0.78950395    -0.13400
C444        C  0.07461355  0.99897044  0.74450485     0.08800
C445        C  0.09078003  0.99864078  0.69965404    -0.13400
C446        C  0.12232814  0.99723358  0.69976117    -0.13400
C447        C  0.13845066  0.99622732  0.74473497     0.08800
C448        C  0.12230185  0.99633386  0.78958630    -0.13400
H449        H  0.07891169  0.99777703  0.82470129     0.12800
H450        H  0.07906474  0.99939040  0.66436235     0.12800
H451        H  0.13407426  0.99712251  0.66452514     0.12800
H452        H  0.13410774  0.99561158  0.82476051     0.12800
C453        C  0.49993572  0.19778792  0.00067739    -0.16400
C454        C  0.51860695  0.16648735  0.97426174    -0.31600
H455        H  0.02628626  0.18023924  0.52781791     0.12600
H456        H  0.53330684  0.18446625  0.94633794     0.13200
C457        C  0.01667636  0.83420996  0.00791047    -0.16400
C458        C  0.99636656  0.80215565  0.98573264    -0.31600
H459        H  0.02328540  0.81959911  0.53693536     0.12600
H460        H  0.47829693  0.82285478  0.96242098     0.13200
C461        C  0.40763972  0.00356874  0.94901767    -0.13400
C462        C  0.42405576  0.00323045  0.99364714     0.08800
C463        C  0.39049976  0.00222482  0.54308088    -0.13400
C464        C  0.35887094  0.00206835  0.54285403    -0.13400
C465        C  0.36019042  0.00227070  0.99474961     0.08800
C466        C  0.37608395  0.00313845  0.94956766    -0.13400
H467        H  0.41915408  0.00404787  0.91356332     0.12800
H468        H  0.40228365  0.01028076  0.57743755     0.12800
H469        H  0.34697835  0.01001096  0.57707614     0.12800
H470        H  0.36414994  0.00328070  0.91447402     0.12800
C471        C  0.10881104  0.01119302  0.53444348    -0.13400
C472        C  0.11018461  0.99708853  0.99033811     0.08800
C473        C  0.12662712  0.99349823  0.94591465    -0.13400
C474        C  0.15820149  0.99272721  0.94659705    -0.13400
C475        C  0.17397732  0.99526183  0.99179296     0.08800
C476        C  0.14034077  0.01008798  0.53521007    -0.13400
H477        H  0.09686231  0.01494518  0.56928871     0.12800
H478        H  0.11507169  0.99147068  0.91058210     0.12800
H479        H  0.17023143  0.99016746  0.91171173     0.12800
H480        H  0.15182635  0.01325970  0.57056467     0.12800
O481        O  0.97178049  0.00328751  0.02851294    -0.73000
O482        O  0.56293342  0.00586567  0.03119317    -0.73900
O483        O  0.51693258  0.08632926  0.02383956    -0.62600
O484        O  0.51814822  0.92463807  0.04129007    -0.71000
O485        O  0.50165823  0.91571416  0.46394541    -0.70500
O486        O  0.99621482  0.07491751  0.44087865    -0.61800
O487        O  0.54447611  0.00115803  0.45324903    -0.74300
O488        O  0.95435843  0.98936872  0.45107648    -0.73100
Cu489      Cu  0.51760381  0.00580198  0.03536751     1.04600
Cu490      Cu  0.99946329  0.99400720  0.44696701     1.04300
C491        C  0.95758512  0.00103740  0.98727936     0.93200
C492        C  0.57689591  0.99855194  0.99027548     0.92400
C493        C  0.01804844  0.10562374  0.97652387     0.84500
C494        C  0.50340023  0.89514917  0.50749617     0.90800
O495        O  0.00422640  0.92235283  0.18965309    -0.73000
O496        O  0.99932543  0.08366113  0.20660702    -0.73900
O497        O  0.54623021  0.01139927  0.19969643    -0.62600
O498        O  0.95598710  0.99867775  0.19705797    -0.71000
O499        O  0.95547519  0.98781273  0.27881189    -0.70500
O500        O  0.54601118  0.99750292  0.28106705    -0.61800
O501        O  0.99779870  0.07240519  0.28844462    -0.74300
O502        O  0.00273361  0.91173681  0.27154909    -0.73100
Cu503      Cu  0.00142976  0.00335586  0.19513074     1.04600
Cu504      Cu  0.00053063  0.99171046  0.28266922     1.04300
C505        C  0.00437086  0.89177422  0.22808122     0.93200
C506        C  0.99777518  0.10326670  0.25026839     0.92400
C507        C  0.56052440  0.00538529  0.24057110     0.84500
C508        C  0.94136975  0.99208877  0.23760885     0.90800
O509        O  0.79513291  0.99431680  0.45185280    -0.73000
O510        O  0.70467558  0.00774112  0.45072118    -0.73900
O511        O  0.75428575  0.08202174  0.45061956    -0.62600
O512        O  0.74565093  0.92030081  0.45155018    -0.71000
O513        O  0.76786888  0.92110910  0.02793110    -0.70500
O514        O  0.76605996  0.08411768  0.02907302    -0.61800
O515        O  0.72208253  0.00075011  0.02868018    -0.74300
O516        O  0.81258200  0.00411856  0.02818654    -0.73100
Cu517      Cu  0.74993578  0.00111986  0.44832744     1.04600
Cu518      Cu  0.76718097  0.00252215  0.03131769     1.04300
C519        C  0.80949994  0.99492616  0.49302952     0.93200
C520        C  0.69020337  0.00706616  0.49177242     0.92400
C521        C  0.75394226  0.10773737  0.49148608     0.84500
C522        C  0.74611189  0.89444375  0.49272443     0.90800
O523        O  0.75600239  0.08308010  0.19903197    -0.73000
O524        O  0.74595064  0.92120634  0.19790201    -0.73900
O525        O  0.70572047  0.01011714  0.19941248    -0.62600
O526        O  0.79599381  0.99425500  0.19731735    -0.71000
O527        O  0.79674246  0.99664088  0.27954165    -0.70500
O528        O  0.70607383  0.00422781  0.28153399    -0.61800
O529        O  0.74952394  0.91945855  0.28009029    -0.74300
O530        O  0.75366610  0.08201717  0.28132394    -0.73100
Cu531      Cu  0.75086345  0.00225579  0.19554468     1.04600
Cu532      Cu  0.75149716  0.00058521  0.28351323     1.04300
C533        C  0.75619078  0.10802933  0.24032754     0.93200
C534        C  0.74676669  0.89483496  0.23884414     0.92400
C535        C  0.69150300  0.00833536  0.24068650     0.84500
C536        C  0.81071111  0.99378413  0.23812995     0.90800
O537        O  0.96918423  0.71273275  0.48908012    -0.73000
O538        O  0.97490562  0.55136732  0.49628307    -0.73900
O539        O  0.97374399  0.63588941  0.06787808    -0.62600
O540        O  0.97240571  0.62911881  0.41923425    -0.71000
O541        O  0.51940079  0.64090861  0.41709022    -0.70500
O542        O  0.52099781  0.63840074  0.06713863    -0.61800
O543        O  0.52246430  0.55905317  0.49130053    -0.74300
O544        O  0.51732285  0.72143069  0.49172684    -0.73100
Cu545      Cu  0.97046388  0.63192723  0.49341308     1.04600
Cu546      Cu  0.52177328  0.64040969  0.49143881     1.04300
C547        C  0.49135536  0.74389405  0.48949698     0.93200
C548        C  0.00075194  0.52855890  0.49523864     0.92400
C549        C  0.49555891  0.63850703  0.08958294     0.84500
C550        C  0.49430160  0.63701119  0.39394148     0.90800
O551        O  0.97328369  0.63265585  0.16943020    -0.73000
O552        O  0.97277576  0.62759041  0.31829370    -0.73900
O553        O  0.96923770  0.71069444  0.24659677    -0.62600
O554        O  0.97659298  0.54923343  0.24269810    -0.71000
O555        O  0.52252618  0.56006941  0.24319405    -0.70500
O556        O  0.51604855  0.72239029  0.24041676    -0.61800
O557        O  0.51914954  0.64172415  0.31616998    -0.74300
O558        O  0.51984043  0.64062960  0.16776387    -0.73100
Cu559      Cu  0.97123253  0.62975100  0.24408932     1.04600
Cu560      Cu  0.52113300  0.64144075  0.24185875     1.04300
C561        C  0.99842337  0.63563221  0.14617231     0.93200
C562        C  0.99769329  0.63229560  0.34177782     0.92400
C563        C  0.99302559  0.73994595  0.24584939     0.84500
C564        C  0.00268184  0.52724666  0.24393096     0.90800
O565        O  0.73307200  0.63927588  0.44288260    -0.73000
O566        O  0.73023329  0.63875426  0.09316542    -0.73900
O567        O  0.72956689  0.72152062  0.02019452    -0.62600
O568        O  0.73071346  0.55827045  0.51777634    -0.71000
O569        O  0.78084712  0.55437351  0.51819704    -0.70500
O570        O  0.78439776  0.71696686  0.52039854    -0.61800
O571        O  0.78041861  0.63979538  0.09105844    -0.74300
O572        O  0.78324706  0.63708145  0.44402851    -0.73100
Cu573      Cu  0.72711405  0.64027547  0.01892778     1.04600
Cu574      Cu  0.78429861  0.63563510  0.51896055     1.04300
C575        C  0.75830518  0.63821896  0.42001522     0.93200
C576        C  0.75570540  0.63905624  0.11551693     0.92400
C577        C  0.76000073  0.74441501  0.51857124     0.84500
C578        C  0.75514387  0.53072919  0.51804291     0.90800
O579        O  0.78327931  0.63517960  0.34195675    -0.73000
O580        O  0.78176099  0.63739084  0.19272760    -0.73900
O581        O  0.78464021  0.71739999  0.26823324    -0.62600
O582        O  0.78042887  0.55480585  0.26709757    -0.71000
O583        O  0.73032133  0.55885469  0.26922193    -0.70500
O584        O  0.73451711  0.72157651  0.26586719    -0.61800
O585        O  0.73157672  0.63943042  0.19383152    -0.74300
O586        O  0.73319707  0.64106313  0.34232324    -0.73100
Cu587      Cu  0.78429301  0.63603286  0.26740448     1.04600
Cu588      Cu  0.73066059  0.64035757  0.26792492     1.04300
C589        C  0.75833280  0.63818927  0.36558203     0.93200
C590        C  0.75643671  0.63858764  0.16986992     0.92400
C591        C  0.76028677  0.74501117  0.26678024     0.84500
C592        C  0.75470270  0.53121602  0.26821617     0.90800
O593        O  0.98000674  0.36347354  0.07063010    -0.73000
O594        O  0.98287187  0.36053865  0.41824103    -0.73900
O595        O  0.98223743  0.27900556  0.49250058    -0.62600
O596        O  0.97805372  0.44148907  0.49250085    -0.71000
O597        O  0.52600654  0.44900876  0.49313000    -0.70500
O598        O  0.53187437  0.28750123  0.49945100    -0.61800
O599        O  0.53089288  0.36619839  0.42077209    -0.74300
O600        O  0.52636461  0.36512688  0.06669378    -0.73100
Cu601      Cu  0.97828120  0.36009955  0.49216222     1.04600
Cu602      Cu  0.52641005  0.36475336  0.99228067     1.04300
C603        C  0.00584849  0.36303276  0.09184283     0.93200
C604        C  0.00856935  0.36127526  0.39663523     0.92400
C605        C  0.00796671  0.25614132  0.49737443     0.84500
C606        C  0.00242701  0.46929055  0.49417808     0.90800
O607        O  0.98691905  0.27725577  0.24443281    -0.73000
O608        O  0.98093429  0.43941826  0.24461706    -0.73900
O609        O  0.98280595  0.35909877  0.17076410    -0.62600
O610        O  0.98438500  0.35792721  0.31865729    -0.71000
O611        O  0.53133402  0.36682232  0.31749818    -0.70500
O612        O  0.52847368  0.37074182  0.16789595    -0.61800
O613        O  0.52682371  0.44985984  0.24365924    -0.74300
O614        O  0.53344069  0.28828281  0.23986617    -0.73100
Cu615      Cu  0.98208022  0.35818341  0.24477134     1.04600
Cu616      Cu  0.53179034  0.36918826  0.24231940     1.04300
C617        C  0.01290373  0.25504566  0.24108853     0.93200
C618        C  0.00501795  0.46804151  0.24442002     0.92400
C619        C  0.00734149  0.36300834  0.14615396     0.84500
C620        C  0.00939899  0.36040718  0.34208854     0.90800
O621        O  0.72111208  0.28669082  0.52194272    -0.73000
O622        O  0.72754560  0.44845503  0.51804880    -0.73900
O623        O  0.72423606  0.36662782  0.44497650    -0.62600
O624        O  0.72604486  0.36674299  0.09352498    -0.71000
O625        O  0.77620287  0.36335982  0.09331666    -0.70500
O626        O  0.77438030  0.36247497  0.44460682    -0.61800
O627        O  0.77763233  0.44305318  0.51892738    -0.74300
O628        O  0.77112114  0.28011625  0.51813738    -0.73100
Cu629      Cu  0.72273936  0.36779283  0.51968972     1.04600
Cu630      Cu  0.77630566  0.36132912  0.51873080     1.04300
C631        C  0.74500312  0.25794139  0.52042900     0.93200
C632        C  0.75344405  0.47132664  0.51831053     0.92400
C633        C  0.74927186  0.36464821  0.42137207     0.84500
C634        C  0.75113071  0.36485504  0.11685657     0.90800
O635        O  0.77283549  0.28099460  0.26875592    -0.73000
O636        O  0.77745740  0.44396456  0.26939624    -0.73900
O637        O  0.77448791  0.36173598  0.34378716    -0.62600
O638        O  0.77597544  0.36326434  0.19494179    -0.71000
O639        O  0.72580216  0.36590907  0.19447921    -0.70500
O640        O  0.72441899  0.36812803  0.34335550    -0.61800
O641        O  0.72735211  0.44830842  0.26752427    -0.74300
O642        O  0.72273967  0.28591498  0.27138242    -0.73100
Cu643      Cu  0.77695915  0.36234268  0.26929864     1.04600
Cu644      Cu  0.72333971  0.36721443  0.26903454     1.04300
C645        C  0.74695441  0.25794575  0.27051202     0.93200
C646        C  0.75311196  0.47174861  0.26836678     0.92400
C647        C  0.74936464  0.36485813  0.36699030     0.84500
C648        C  0.75098957  0.36460281  0.17127502     0.90800
C649        C  0.75974645  0.16734643  0.24025884    -0.16400
C650        C  0.74469043  0.19852761  0.27231487    -0.31600
H651        H  0.77341306  0.18605378  0.21131386     0.12600
H652        H  0.72854375  0.18026970  0.29783023     0.13200
C653        C  0.74433363  0.83542703  0.23838141    -0.16400
C654        C  0.76218456  0.80447160  0.26711293    -0.31600
H655        H  0.72892493  0.81673859  0.21218467     0.12600
H656        H  0.77974936  0.82317786  0.28938595     0.13200
C657        C  0.75718425  0.16705956  0.49049658    -0.16400
C658        C  0.74213758  0.19863602  0.52219536    -0.31600
H659        H  0.77098615  0.18538696  0.46151524     0.12600
H660        H  0.73310514  0.17845544  0.04229576     0.13200
C661        C  0.74365677  0.83509401  0.49232910    -0.16400
C662        C  0.76171789  0.80384862  0.52032862    -0.31600
H663        H  0.72824870  0.81660640  0.46600501     0.12600
H664        H  0.74007556  0.82587462  0.04601197     0.13200
C665        C  0.99543636  0.16201754  0.25692734    -0.16400
C666        C  0.01537591  0.19598626  0.23589344    -0.31600
H667        H  0.97804864  0.17739176  0.28147842     0.12600
H668        H  0.52922281  0.18535216  0.20965986     0.14800
C669        C  0.00692904  0.83290285  0.22225347    -0.16400
C670        C  0.98998103  0.79893842  0.24951638    -0.31600
H671        H  0.02211709  0.81726207  0.19416642     0.12600
H672        H  0.47070077  0.81951986  0.27197190     0.13200
C673        C  0.89183866  0.98328023  0.28175683    -0.13400
C674        C  0.90793973  0.99008156  0.23717743     0.08800
C675        C  0.89176175  0.99619647  0.19260309    -0.13400
C676        C  0.86015838  0.99641265  0.19275243    -0.13400
C677        C  0.84410024  0.99076171  0.23750387     0.08800
C678        C  0.86028668  0.98371363  0.28192232    -0.13400
H679        H  0.90361113  0.97823563  0.31670760     0.12800
H680        H  0.90350164  0.00149594  0.15766125     0.12800
H681        H  0.84830729  0.00198298  0.15793737     0.12800
H682        H  0.84857426  0.97892901  0.31696072     0.12800
C683        C  0.61024978  0.00016307  0.28527016    -0.13400
C684        C  0.59403235  0.00748364  0.24087282     0.08800
C685        C  0.61016939  0.01653131  0.19661567    -0.13400
C686        C  0.64177258  0.01761295  0.19668052    -0.13400
C687        C  0.65799681  0.00978628  0.24101648     0.08800
C688        C  0.64186398  0.00137932  0.28535379    -0.13400
H689        H  0.59851741  0.99306987  0.31995861     0.12800
H690        H  0.59838774  0.02246457  0.16177707     0.12800
H691        H  0.65348837  0.02421076  0.16187453     0.12800
H692        H  0.65368054  0.99494860  0.32006093     0.12800
C693        C  0.00999549  0.19703606  0.50174067    -0.16400
C694        C  0.99370052  0.16393702  0.47307633    -0.31600
H695        H  0.48317628  0.17905069  0.02481687     0.12600
H696        H  0.97966159  0.18033995  0.44349785     0.13200
C697        C  0.50561140  0.83613501  0.51355693    -0.16400
C698        C  0.48895958  0.80299509  0.48547103    -0.31600
H699        H  0.53107782  0.81727507  0.03615216     0.12600
H700        H  0.97261072  0.81595942  0.45938963     0.13200
C701        C  0.89055760  0.98979868  0.44807291    -0.13400
C702        C  0.90683695  0.99114636  0.49285139     0.08800
C703        C  0.90806241  0.00018529  0.03188687    -0.13400
C704        C  0.87652522  0.00134201  0.03192278    -0.13400
C705        C  0.84294660  0.99246282  0.49313733     0.08800
C706        C  0.85899446  0.99049652  0.44822025    -0.13400
H707        H  0.90220219  0.98890404  0.41277390     0.12800
H708        H  0.91980974  0.99737672  0.06705163     0.12800
H709        H  0.86476281  0.99932556  0.06710264     0.12800
H710        H  0.84717542  0.99001887  0.41303660     0.12800
C711        C  0.62686223  0.99993856  0.03401399    -0.13400
C712        C  0.59285397  0.00920222  0.49252901     0.08800
C713        C  0.60876238  0.00293531  0.44782636    -0.13400
C714        C  0.64038214  0.00302634  0.44742812    -0.13400
C715        C  0.65675462  0.00918258  0.49174239     0.08800
C716        C  0.65842709  0.00043004  0.03330198    -0.13400
H717        H  0.61540098  0.00157250  0.06946139     0.12800
H718        H  0.59678638  0.99734548  0.41321689     0.12800
H719        H  0.65200625  0.99741225  0.41253526     0.12800
H720        H  0.67043673  0.00248381  0.06825281     0.12800
O721        O  0.95498196  0.99855734  0.53283792    -0.73000
O722        O  0.54556269  0.01048710  0.53497948    -0.73900
O723        O  0.49799772  0.08652439  0.52801177    -0.62600
O724        O  0.50344913  0.92521634  0.54577972    -0.71000
O725        O  0.51423571  0.91535210  0.95965526    -0.70500
O726        O  0.01959462  0.07541281  0.93839458    -0.61800
O727        O  0.56208792  0.99235662  0.94998077    -0.74300
O728        O  0.97209586  0.99782533  0.94642311    -0.73100
Cu729      Cu  0.50049156  0.00624363  0.53979547     1.04600
Cu730      Cu  0.01736835  0.99412353  0.94473017     1.04300
C731        C  0.94029716  0.99281475  0.49231940     0.93200
C732        C  0.55939321  0.00705609  0.49353110     0.92400
C733        C  0.99595025  0.10494321  0.47917198     0.84500
C734        C  0.51580847  0.89459218  0.00318973     0.90800
O735        O  0.98018187  0.92514992  0.69363301    -0.73000
O736        O  0.98294847  0.08643760  0.71145302    -0.73900
O737        O  0.52722519  0.00450015  0.70023297    -0.62600
O738        O  0.93639224  0.00770221  0.70209902    -0.71000
O739        O  0.93618904  0.99232256  0.78329589    -0.70500
O740        O  0.52684514  0.99734976  0.78229306    -0.61800
O741        O  0.97948491  0.07529707  0.79311928    -0.74300
O742        O  0.98305766  0.91409652  0.77536262    -0.73100
Cu743      Cu  0.98166533  0.00616864  0.69967505     1.04600
Cu744      Cu  0.98135349  0.99431843  0.78709106     1.04300
C745        C  0.98164773  0.89427978  0.73176905     0.93200
C746        C  0.98096820  0.10619129  0.75500593     0.92400
C747        C  0.54141965  0.00120552  0.74151230     0.84500
C748        C  0.92194128  0.00013028  0.74261597     0.90800
O749        O  0.81273856  0.00548140  0.94590222    -0.73000
O750        O  0.72205005  0.00201146  0.94641156    -0.73900
O751        O  0.76714425  0.08544870  0.94671245    -0.62600
O752        O  0.76884868  0.92246735  0.94556808    -0.71000
O753        O  0.74835983  0.91955691  0.53384128    -0.70500
O754        O  0.75136497  0.08245821  0.53286331    -0.61800
O755        O  0.70447675  0.00397715  0.53295264    -0.74300
O756        O  0.79512060  0.99816101  0.53401120    -0.73100
Cu757      Cu  0.76760338  0.00395552  0.94326464     1.04600
Cu758      Cu  0.74979313  0.00103339  0.53632238     1.04300
C759        C  0.82702198  0.00495110  0.98708349     0.93200
C760        C  0.70768698  0.00059774  0.98760892     0.92400
C761        C  0.76647250  0.11039918  0.98802264     0.84500
C762        C  0.76872438  0.89618232  0.98658440     0.90800
O763        O  0.73075993  0.08453472  0.70339650    -0.73000
O764        O  0.73169010  0.92164311  0.70288542    -0.73900
O765        O  0.68647788  0.00235888  0.70325181    -0.62600
O766        O  0.77682531  0.00390957  0.70279076    -0.71000
O767        O  0.77738105  0.00278458  0.78507774    -0.70500
O768        O  0.68664787  0.00132629  0.78552551    -0.61800
O769        O  0.73312903  0.92038108  0.78524408    -0.74300
O770        O  0.73217132  0.08373902  0.78574994    -0.73100
Cu771      Cu  0.73148287  0.00315384  0.70027249     1.04600
Cu772      Cu  0.73227435  0.00202448  0.78833110     1.04300
C773        C  0.73134294  0.10975241  0.74455160     0.93200
C774        C  0.73274830  0.89542163  0.74389405     0.92400
C775        C  0.67218366  0.00181772  0.74436941     0.84500
C776        C  0.79145054  0.00332010  0.74370410     0.90800
O777        O  0.97278151  0.71583492  0.99036769    -0.73000
O778        O  0.97562385  0.55338127  0.99518864    -0.73900
O779        O  0.97232508  0.63528992  0.56816488    -0.62600
O780        O  0.97428840  0.63304893  0.91930334    -0.71000
O781        O  0.52327566  0.63860610  0.91813331    -0.70500
O782        O  0.52088525  0.63952675  0.56569092    -0.61800
O783        O  0.52311753  0.55717757  0.99303245    -0.74300
O784        O  0.52154105  0.71989551  0.99249425    -0.73100
Cu785      Cu  0.97237445  0.63444970  0.99333679     1.04600
Cu786      Cu  0.52400038  0.63859260  0.99283675     1.04300
C787        C  0.49628809  0.74469096  0.98923006     0.93200
C788        C  0.00108446  0.52904329  0.99467262     0.92400
C789        C  0.49601815  0.63790708  0.58961834     0.84500
C790        C  0.49840345  0.63679972  0.89404865     0.90800
O791        O  0.97267794  0.63782012  0.66975342    -0.73000
O792        O  0.97407717  0.63651779  0.81855426    -0.73900
O793        O  0.97396504  0.71879503  0.74409249    -0.62600
O794        O  0.97288583  0.55579417  0.74419101    -0.71000
O795        O  0.52215216  0.55542066  0.74144993    -0.70500
O796        O  0.52382269  0.71741899  0.74331639    -0.61800
O797        O  0.52362547  0.63516942  0.81624505    -0.74300
O798        O  0.52189821  0.63790170  0.66702294    -0.73100
Cu799      Cu  0.97163600  0.63729677  0.74414118     1.04600
Cu800      Cu  0.52462755  0.63640215  0.74178082     1.04300
C801        C  0.99765344  0.63849334  0.64605608     0.93200
C802        C  0.99926853  0.63506405  0.84174809     0.92400
C803        C  0.99925277  0.74376248  0.74653557     0.84500
C804        C  0.99789454  0.53001627  0.74335714     0.90800
O805        O  0.72763267  0.64163466  0.94407792    -0.73000
O806        O  0.73144517  0.63994299  0.59121981    -0.73900
O807        O  0.73431722  0.72083678  0.51591467    -0.62600
O808        O  0.72803809  0.55889523  0.01822121    -0.71000
O809        O  0.77820787  0.55757333  0.01805494    -0.70500
O810        O  0.77965755  0.72090589  0.01488676    -0.61800
O811        O  0.78154558  0.63467920  0.59335597    -0.74300
O812        O  0.77778735  0.63841817  0.94262345    -0.73100
Cu813      Cu  0.73066392  0.63966126  0.51689239     1.04600
Cu814      Cu  0.78077547  0.63914684  0.01657000     1.04300
C815        C  0.75246784  0.63996973  0.91992822     0.93200
C816        C  0.75613019  0.63764364  0.61567788     0.92400
C817        C  0.75472167  0.74678535  0.01766031     0.84500
C818        C  0.75286548  0.53257817  0.01836498     0.90800
O819        O  0.77760814  0.63842033  0.84270369    -0.73000
O820        O  0.77990528  0.63969074  0.69446925    -0.73900
O821        O  0.77863558  0.72105352  0.76942134    -0.62600
O822        O  0.77822050  0.55746851  0.76840506    -0.71000
O823        O  0.72804965  0.55844276  0.76805683    -0.70500
O824        O  0.72854153  0.72106615  0.76479645    -0.61800
O825        O  0.72972074  0.63857973  0.69227131    -0.74300
O826        O  0.72743519  0.64076738  0.84151861    -0.73100
Cu827      Cu  0.78034690  0.63918652  0.76879626     1.04600
Cu828      Cu  0.72668519  0.63973853  0.76661293     1.04300
C829        C  0.75236203  0.63972810  0.86553504     0.93200
C830        C  0.75521249  0.63865562  0.66998456     0.92400
C831        C  0.75359250  0.74672833  0.76705596     0.84500
C832        C  0.75292798  0.53229683  0.76814793     0.90800
O833        O  0.97696847  0.35987018  0.56664568    -0.73000
O834        O  0.97440489  0.36164827  0.92170061    -0.73900
O835        O  0.97711914  0.28153643  0.99863101    -0.62600
O836        O  0.97681856  0.44353349  0.99523783    -0.71000
O837        O  0.52409765  0.44626176  0.99189181    -0.70500
O838        O  0.52505869  0.28308492  0.99284775    -0.61800
O839        O  0.52313467  0.36442005  0.91831831    -0.74300
O840        O  0.52633277  0.37013910  0.56996971    -0.73100
Cu841      Cu  0.97534089  0.36252996  0.99662397     1.04600
Cu842      Cu  0.53053966  0.36842458  0.49583513     1.04300
C843        C  0.00118865  0.36362243  0.59214246     0.93200
C844        C  0.99886405  0.36272815  0.89646039     0.92400
C845        C  0.00204051  0.25589570  0.99565120     0.84500
C846        C  0.00173485  0.46964809  0.99411896     0.90800
O847        O  0.97392966  0.28148416  0.74478665    -0.73000
O848        O  0.97291831  0.44452921  0.74302532    -0.73900
O849        O  0.97432114  0.36263786  0.66891877    -0.62600
O850        O  0.97284752  0.36313508  0.81879131    -0.71000
O851        O  0.52242055  0.36224678  0.81820265    -0.70500
O852        O  0.52418741  0.36732182  0.67022839    -0.61800
O853        O  0.52229575  0.44571454  0.74541269    -0.74300
O854        O  0.52391154  0.28346839  0.74134422    -0.73100
Cu855      Cu  0.97166051  0.36293145  0.74387689     1.04600
Cu856      Cu  0.52489539  0.36470964  0.74403995     1.04300
C857        C  0.99926532  0.25679040  0.74286902     0.93200
C858        C  0.99790940  0.47056306  0.74379710     0.92400
C859        C  0.99978603  0.36413168  0.64642323     0.84500
C860        C  0.99804036  0.36279553  0.84204778     0.90800
O861        O  0.72525689  0.28492802  0.02055663    -0.73000
O862        O  0.72685560  0.44810588  0.01844022    -0.73900
O863        O  0.72566421  0.36632794  0.94490996    -0.62600
O864        O  0.72500698  0.36855303  0.59399414    -0.71000
O865        O  0.77500287  0.36061895  0.59325677    -0.70500
O866        O  0.77587167  0.36697818  0.94436632    -0.61800
O867        O  0.77701895  0.44660290  0.01953010    -0.74300
O868        O  0.77538703  0.28369779  0.01687591    -0.73100
Cu869      Cu  0.72420620  0.36658601  0.01934758     1.04600
Cu870      Cu  0.77788131  0.36511674  0.01858319     1.04300
C871        C  0.75008371  0.25870303  0.01843484     0.93200
C872        C  0.75221817  0.47301315  0.01882948     0.92400
C873        C  0.75067105  0.36676205  0.92125124     0.84500
C874        C  0.75015382  0.36458751  0.61704509     0.90800
O875        O  0.77427540  0.28315978  0.77259615    -0.73000
O876        O  0.77696197  0.44607572  0.76726218    -0.73900
O877        O  0.77564111  0.36653713  0.84359908    -0.62600
O878        O  0.77549266  0.36263307  0.69485581    -0.71000
O879        O  0.72535975  0.36710387  0.69484352    -0.70500
O880        O  0.72543075  0.36629968  0.84353016    -0.61800
O881        O  0.72681069  0.44808321  0.76891254    -0.74300
O882        O  0.72414576  0.28502458  0.76899430    -0.73100
Cu883      Cu  0.77734768  0.36449997  0.76946922     1.04600
Cu884      Cu  0.72368036  0.36671722  0.76905611     1.04300
C885        C  0.74888925  0.25849009  0.77148533     0.93200
C886        C  0.75224539  0.47273410  0.76805028     0.92400
C887        C  0.75054247  0.36663195  0.86694772     0.84500
C888        C  0.75038911  0.36472928  0.67142884     0.90800
C889        C  0.73066644  0.16944833  0.74398839    -0.16400
C890        C  0.74841903  0.19883022  0.77390019    -0.31600
H891        H  0.71697967  0.18968802  0.71598835     0.12600
H892        H  0.76450724  0.17856695  0.79817319     0.13200
C893        C  0.73287121  0.83576399  0.74310982    -0.16400
C894        C  0.75365463  0.80653562  0.76788417    -0.31600
H895        H  0.71663073  0.81553840  0.71935456     0.12600
H896        H  0.77170711  0.82700619  0.78764928     0.13200
C897        C  0.76694644  0.17010776  0.98798933    -0.16400
C898        C  0.74939586  0.19899711  0.01856135    -0.31600
H899        H  0.78094054  0.19081881  0.96066761     0.12600
H900        H  0.72589734  0.18079550  0.54780818     0.13200
C901        C  0.76987629  0.83651938  0.98587498    -0.16400
C902        C  0.75466592  0.80635615  0.01916168    -0.31600
H903        H  0.78192189  0.81698080  0.95583299     0.12600
H904        H  0.77932253  0.82226942  0.54272247     0.13200
C905        C  0.97998789  0.16520266  0.76137064    -0.16400
C906        C  0.00017989  0.19747246  0.73876218    -0.31600
H907        H  0.96335063  0.18213819  0.78645958     0.12600
H908        H  0.51791314  0.18021899  0.71410421     0.14800
C909        C  0.98125414  0.83522099  0.72531134    -0.16400
C910        C  0.99995087  0.80303003  0.75118796    -0.31600
H911        H  0.96633666  0.81810458  0.69749711     0.12600
H912        H  0.51736937  0.82072167  0.77062263     0.13200
C913        C  0.87260205  0.99801834  0.78761546    -0.13400
C914        C  0.88856306  0.00075277  0.74263236     0.08800
C915        C  0.87234211  0.00452897  0.69791383    -0.13400
C916        C  0.84077664  0.00543779  0.69821845    -0.13400
C917        C  0.82483038  0.00284249  0.74326201     0.08800
C918        C  0.84107852  0.99920025  0.78795825    -0.13400
H919        H  0.88449810  0.99513560  0.82261864     0.12800
H920        H  0.88401786  0.00666819  0.66265647     0.12800
H921        H  0.82887322  0.00823432  0.66318795     0.12800
H922        H  0.82945461  0.99704436  0.82328603     0.12800
C923        C  0.59065615  0.00194117  0.78760977    -0.13400
C924        C  0.57487308  0.00176806  0.74228082     0.08800
C925        C  0.59137099  0.00193097  0.69777890    -0.13400
C926        C  0.62293560  0.00195053  0.69856336    -0.13400
C927        C  0.63873173  0.00189731  0.74387436     0.08800
C928        C  0.62225263  0.00207043  0.78837550    -0.13400
H929        H  0.57860410  0.00200836  0.82257644     0.12800
H930        H  0.57989824  0.00176930  0.66228378     0.12800
H931        H  0.63495094  0.00189784  0.66357207     0.12800
H932        H  0.63378841  0.00226255  0.82378661     0.12800
C933        C  0.00153595  0.19649955  0.99933457    -0.16400
C934        C  0.01857190  0.16491575  0.97040156    -0.31600
H935        H  0.52834270  0.18377089  0.52706710     0.12600
H936        H  0.03215363  0.18270873  0.94088926     0.13200
C937        C  0.51551902  0.83538276  0.00962641    -0.16400
C938        C  0.49573251  0.80418082  0.98519987    -0.31600
H939        H  0.52010942  0.81971885  0.54252018     0.12600
H940        H  0.97814588  0.82004721  0.96412146     0.13200
C941        C  0.90812830  0.00572805  0.94212900    -0.13400
C942        C  0.92419741  0.00226804  0.98701723     0.08800
C943        C  0.89081367  0.99246611  0.53783578    -0.13400
C944        C  0.85919977  0.99307463  0.53798940    -0.13400
C945        C  0.86043237  0.00472910  0.98709181     0.08800
C946        C  0.87655938  0.00703942  0.94219252    -0.13400
H947        H  0.91992451  0.00758983  0.90694246     0.12800
H948        H  0.90270467  0.99344971  0.57294253     0.12800
H949        H  0.84751376  0.99448564  0.57322627     0.12800
H950        H  0.86476370  0.00979005  0.90708886     0.12800
C951        C  0.60926455  0.01625516  0.53669721    -0.13400
C952        C  0.61035755  0.99762655  0.98953861     0.08800
C953        C  0.62614048  0.99513101  0.94435390    -0.13400
C954        C  0.65774947  0.99589497  0.94360272    -0.13400
C955        C  0.67423331  0.99887404  0.98807759     0.08800
C956        C  0.64083616  0.01612904  0.53632003    -0.13400
H957        H  0.59772633  0.02138691  0.57175212     0.12800
H958        H  0.61403702  0.99313217  0.90951974     0.12800
H959        H  0.66925237  0.99435412  0.90817780     0.12800
H960        H  0.65277983  0.02124028  0.57104894     0.12800
loop_ 
_geom_bond_atom_site_label_1 
_geom_bond_atom_site_label_2 
_geom_bond_distance 
_geom_bond_site_symmetry_2 
_ccdc_geom_bond_type 
O1           C11   1.278   1_554  A
O1         Cu489   2.008       .  S
O2           C12   1.278   1_544  A
O2           Cu9   2.002       .  S
O3          C493   1.278   1_554  A
O3           Cu9   2.008       .  S
O4          C254   1.276       .  A
O4           Cu9   2.009   1_565  S
O5           C14   1.278       .  A
O5         Cu490   2.011   1_455  S
O6          C253   1.276       .  A
O6          Cu10   2.008   1_545  S
O7          C252   1.280   1_565  A
O7         Cu490   2.018   1_455  S
O8          C251   1.277       .  A
O8          Cu10   1.996       .  S
Cu9         O481   2.002   1_455  S
Cu9        Cu730   2.372   1_544  S
Cu10        O485   2.005       .  S
Cu10        O487   2.017   1_565  S
Cu10       Cu729   2.374   1_565  S
C11         O248   1.278       .  A
C11         C462   1.480       .  S
C12         O247   1.278       .  A
C12         C472   1.478       .  S
C13         O483   1.278   1_556  A
C13         O246   1.277       .  A
C13         C454   1.474       .  S
C14         O244   1.276       .  A
C14         C217   1.469       .  S
O15          C25   1.277       .  A
O15         Cu23   2.014   1_565  S
O16          C26   1.279       .  A
O16         Cu23   2.011       .  S
O17          C27   1.276       .  A
O17        Cu503   1.994       .  S
O18          C28   1.280   1_545  A
O18         Cu23   2.018       .  S
O19          C28   1.277       .  A
O19         Cu24   1.998       .  S
O20          C27   1.280   1_565  A
O20        Cu504   2.014       .  S
O21          C26   1.276       .  A
O21         Cu24   2.007   1_545  S
O22          C25   1.278       .  A
O22         Cu24   2.008       .  S
Cu23        O497   2.005       .  S
Cu23        Cu24   2.374   1_545  S
Cu24        O500   2.018       .  S
C25         C189   1.472       .  S
C26         C185   1.470       .  S
C27         C204   1.478       .  S
C28         C194   1.479       .  S
O29          C39   1.279       .  A
O29         Cu37   2.006       .  S
O30          C40   1.278       .  A
O30         Cu37   2.007   1_545  S
O31          C41   1.277       .  A
O31         Cu37   2.011   1_545  S
O32          C42   1.276       .  A
O32         Cu37   2.009       .  S
O33         C282   1.279   1_554  A
O33         Cu38   2.019       .  S
O34         C281   1.278   1_554  A
O34         Cu38   2.018   1_545  S
O35         C280   1.278   1_554  A
O35         Cu38   2.001       .  S
O36         C279   1.280   1_564  A
O36         Cu38   2.021       .  S
Cu37       Cu278   2.372       .  S
Cu38       Cu277   2.373   1_554  S
C39         O276   1.278       .  A
C39         C225   1.480       .  S
C40         O275   1.279   1_545  A
C40         C235   1.479       .  S
C41         O274   1.279       .  A
C41         C177   1.473       .  S
C42         O273   1.279       .  A
C42         C181   1.473       .  S
O43          C53   1.277       .  A
O43         Cu51   2.014       .  S
O44          C54   1.278       .  A
O44         Cu51   2.017   1_565  S
O45          C55   1.278       .  A
O45         Cu51   2.005       .  S
O46          C56   1.278       .  A
O46         Cu51   2.005   1_565  S
O47          C56   1.278       .  A
O47         Cu52   2.006       .  S
O48          C55   1.278   1_565  A
O48         Cu52   2.004       .  S
O49          C54   1.279       .  A
O49         Cu52   2.017       .  S
O50          C53   1.278       .  A
O50         Cu52   2.014   1_545  S
Cu51        Cu52   2.371   1_545  S
C53         C169   1.474       .  S
C54         C173   1.476       .  S
C55         C207   1.478       .  S
C56         C197   1.479       .  S
O57         C547   1.276       .  A
O57         Cu65   2.006       .  S
O58          C68   1.277       .  A
O58         Cu65   2.007       .  S
O59         C549   1.277       .  A
O59        Cu305   2.010   1_554  S
O60         C550   1.277       .  A
O60         Cu65   2.005       .  S
O61          C70   1.277   1_455  A
O61         Cu66   2.004       .  S
O62          C69   1.278   1_455  A
O62        Cu306   2.009   1_554  S
O63         C548   1.279       .  A
O63         Cu66   2.017       .  S
O64          C67   1.279   1_455  A
O64         Cu66   2.017       .  S
Cu65        O299   2.018       .  S
Cu65       Cu546   2.376       .  S
Cu66        O302   2.003       .  S
Cu66       Cu545   2.376   1_455  S
C67         O537   1.275       .  A
C67         C218   1.469       .  S
C68         O543   1.279       .  A
C68         C126   1.467       .  S
C69         O539   1.277       .  A
C69         C561   1.468       .  S
C70         O540   1.277       .  A
C70         C562   1.463       .  S
O71          C81   1.279       .  A
O71         Cu79   2.018       .  S
O72          C82   1.277       .  A
O72         Cu79   2.006       .  S
O73          C83   1.276       .  A
O73         Cu79   2.008       .  S
O74          C84   1.277       .  A
O74         Cu79   2.009       .  S
O75         C564   1.278       .  A
O75         Cu80   2.014       .  S
O76         C563   1.278   1_455  A
O76         Cu80   2.014       .  S
O77         C562   1.278   1_455  A
O77         Cu80   2.007       .  S
O78         C561   1.277   1_455  A
O78         Cu80   2.004       .  S
Cu79       Cu560   2.376       .  S
Cu80       Cu559   2.376   1_455  S
C81         O558   1.276       .  A
C81         C549   1.466       .  S
C82         O557   1.277       .  A
C82         C550   1.464       .  S
C83         O556   1.278       .  A
C83         C190   1.470       .  S
C84         O555   1.279       .  A
C84         C138   1.469       .  S
O85          C95   1.276       .  A
O85        Cu333   1.997       .  S
O86          C96   1.278       .  A
O86         Cu93   2.007       .  S
O87         C337   1.277       .  A
O87         Cu93   2.012       .  S
O88          C98   1.279       .  A
O88        Cu333   2.016       .  S
O89          C98   1.277       .  A
O89         Cu94   2.011       .  S
O90          C97   1.277       .  A
O90         Cu94   2.011       .  S
O91          C96   1.277       .  A
O91        Cu334   2.009       .  S
O92          C95   1.279       .  A
O92         Cu94   2.019       .  S
Cu93        O325   2.020   1_554  S
Cu93        O328   2.014       .  S
Cu93       Cu334   2.375       .  S
Cu94        O331   2.007       .  S
Cu94       Cu333   2.376       .  S
C95         C109   1.467       .  S
C96         C110   1.466       .  S
C97         O327   1.279       .  A
C97         C182   1.473       .  S
C98         C152   1.470       .  S
O99         C109   1.278       .  A
O99        Cu107   2.013       .  S
O100        C110   1.280       .  A
O100       Cu107   2.021       .  S
O101        C111   1.278       .  A
O101       Cu107   2.017       .  S
O102        C112   1.278       .  A
O102       Cu107   2.017       .  S
O103        C112   1.278       .  A
O103       Cu108   2.013       .  S
O104        C111   1.278       .  A
O104       Cu108   2.018       .  S
O105        C110   1.275       .  A
O105       Cu108   1.995       .  S
O106        C109   1.278       .  A
O106       Cu108   2.004       .  S
Cu107      Cu108   2.375       .  S
C111        C174   1.475       .  S
C112        C166   1.472       .  S
O113        C123   1.278       .  A
O113       Cu361   2.007   1_554  S
O114        C124   1.277       .  A
O114       Cu121   1.998       .  S
O115        C125   1.279       .  A
O115       Cu121   2.016       .  S
O116        C126   1.279       .  A
O116       Cu121   2.015       .  S
O117        C606   1.277       .  A
O117       Cu362   2.008       .  S
O118        C605   1.276       .  A
O118       Cu362   2.004       .  S
O119        C604   1.279       .  A
O119       Cu362   2.024       .  S
O120        C603   1.277       .  A
O120       Cu122   2.008   1_554  S
Cu121       O353   2.004       .  S
Cu121      Cu842   2.376       .  S
Cu122       O357   2.020       .  S
Cu122       O358   2.022       .  S
Cu122       O359   1.997       .  S
Cu122      Cu841   2.376   1_455  S
C123        O600   1.277       .  A
C123        C139   1.465       .  S
C124        O599   1.279       .  A
C124        C140   1.469       .  S
C125        O598   1.276       .  A
C125        C213   1.470       .  S
C126        O597   1.276       .  A
O127        C137   1.279       .  A
O127       Cu135   2.016       .  S
O128        C138   1.279       .  A
O128       Cu135   2.015       .  S
O129        C139   1.276       .  A
O129       Cu135   2.001       .  S
O130        C140   1.276       .  A
O130       Cu135   1.996       .  S
O131        C620   1.281       .  A
O131       Cu136   2.033       .  S
O132        C619   1.279       .  A
O132       Cu136   2.019       .  S
O133        C618   1.277       .  A
O133       Cu136   2.010       .  S
O134        C617   1.277       .  A
O134       Cu136   2.009       .  S
Cu135      Cu616   2.376       .  S
Cu136      Cu615   2.376   1_455  S
C137        O614   1.276       .  A
C137        C186   1.469       .  S
C138        O613   1.277       .  A
C139        O612   1.278       .  A
C140        O611   1.279       .  A
O141        C151   1.276       .  A
O141       Cu149   2.009       .  S
O142        C152   1.277       .  A
O142       Cu149   2.009       .  S
O143        C153   1.279       .  A
O143       Cu149   2.017       .  S
O144        C154   1.276       .  A
O144       Cu389   2.000       .  S
O145        C154   1.279       .  A
O145       Cu390   2.015       .  S
O146        C153   1.276       .  A
O146       Cu150   2.000       .  S
O147        C152   1.279       .  A
O147       Cu150   2.018       .  S
O148        C151   1.279       .  A
O148       Cu150   2.018       .  S
Cu149       O384   2.007       .  S
Cu149      Cu150   2.376       .  S
Cu150       O385   2.008       .  S
C151        C178   1.471       .  S
C153        C167   1.466       .  S
C154        C168   1.466       .  S
O155        C165   1.279       .  A
O155       Cu163   2.017       .  S
O156        C166   1.279       .  A
O156       Cu163   2.019       .  S
O157        C167   1.279       .  A
O157       Cu163   2.013       .  S
O158        C168   1.276       .  A
O158       Cu163   2.004       .  S
O159        C168   1.278       .  A
O159       Cu164   2.011       .  S
O160        C167   1.276       .  A
O160       Cu164   2.004       .  S
O161        C166   1.278       .  A
O161       Cu164   2.011       .  S
O162        C165   1.276       .  A
O162       Cu164   2.010       .  S
Cu163      Cu164   2.376       .  S
C165        C170   1.472       .  S
C169        C170   1.341       .  D
C169        H171   1.087       .  S
C170        H172   1.087       .  S
C173        C174   1.342       .  D
C173        H175   1.087       .  S
C174        H176   1.087       .  S
C177        C178   1.341       .  D
C177        H179   1.087       .  S
C178        H420   1.087       .  S
H180        C418   1.086       .  S
C181        C182   1.341       .  D
C181        H183   1.087       .  S
C182        H424   1.087       .  S
H184        C422   1.087       .  S
C185        C186   1.339       .  D
C185        H187   1.087       .  S
C186        H668   1.087       .  S
H188        C666   1.087       .  S
C189        C190   1.341       .  D
C189        H191   1.087       .  S
C190        H672   1.087       .  S
H192        C670   1.087       .  S
C193        C194   1.406       .  A
C193        C198   1.397       .  A
C193        H199   1.083   1_565  S
C194        C195   1.404       .  A
C195        C196   1.397       .  A
C195        H200   1.082       .  S
C196        C197   1.405       .  A
C196        H201   1.082       .  S
C197        C198   1.405       .  A
C198        H202   1.083   1_565  S
C203        C204   1.404   1_565  A
C203        C208   1.396       .  A
C203        H209   1.082       .  S
C204        C205   1.406       .  A
C205        C206   1.397       .  A
C205        H210   1.083       .  S
C206        C207   1.405       .  A
C206        H211   1.083       .  S
C207        C208   1.405   1_545  A
C208        H212   1.082       .  S
C213        C214   1.339       .  D
C213        H935   1.087       .  S
C214        C253   1.470       .  S
C214        H216   1.087       .  S
H215        C933   1.087   1_654  S
C217        C218   1.338   1_455  D
C217        H459   1.087       .  S
C218        H700   1.087       .  S
H219        C457   1.087       .  S
H220        C698   1.087       .  S
C221        C222   1.406       .  A
C221        C226   1.395       .  A
C221        H227   1.083       .  S
C222        C251   1.480       .  S
C222        C463   1.405   1_565  A
C223        C224   1.399       .  A
C223        C462   1.406   1_554  A
C223        H228   1.082       .  S
C224        C465   1.405   1_554  A
C224        H229   1.082       .  S
C225        C226   1.404       .  A
C225        C464   1.406   1_565  A
C226        H230   1.083       .  S
C231        C236   1.396       .  A
C231        C472   1.405   1_554  A
C231        H237   1.082   1_565  S
C232        C252   1.480       .  S
C232        C233   1.405       .  A
C232        C471   1.406       .  A
C233        C234   1.399       .  A
C233        H238   1.082   1_545  S
C234        C235   1.406       .  A
C234        H239   1.082   1_545  S
C235        C476   1.404       .  A
C236        C475   1.405   1_554  A
C236        H240   1.083   1_565  S
O241        C251   1.280   1_545  A
O241       Cu729   2.018       .  S
O242        C252   1.277       .  A
O242       Cu249   1.995       .  S
O243        C733   1.278       .  A
O243       Cu249   2.005   1_655  S
O244       Cu249   2.006   1_565  S
O245        C254   1.279   1_556  A
O245       Cu730   2.020       .  S
O246       Cu250   2.017   1_545  S
O247       Cu730   2.007       .  S
O248       Cu250   2.006   1_545  S
Cu249       O721   2.015   1_445  S
Cu249      Cu490   2.374   1_445  S
Cu250       O725   2.016       .  S
Cu250       O727   2.009       .  S
Cu250      Cu489   2.371   1_566  S
C253        O723   1.278       .  A
C254        C457   1.472       .  S
O255        C265   1.277       .  A
O255       Cu263   2.013   1_565  S
O256        C266   1.278       .  A
O256       Cu263   2.013       .  S
O257        C267   1.279       .  A
O257       Cu743   2.007   1_455  S
O258        C268   1.279   1_545  A
O258       Cu263   2.013       .  S
O259        C268   1.277       .  A
O259       Cu264   2.001       .  S
O260        C267   1.278   1_565  A
O260       Cu744   2.006   1_455  S
O261        C266   1.277       .  A
O261       Cu264   2.013   1_545  S
O262        C265   1.278       .  A
O262       Cu264   2.013       .  S
Cu263       O737   2.013       .  S
Cu263      Cu264   2.371   1_545  S
Cu264       O740   2.003       .  S
C265        C429   1.472       .  S
C266        C425   1.473       .  S
C267        C444   1.480   1_545  S
C268        C434   1.480       .  S
O269        C279   1.276       .  A
O269       Cu277   1.994   1_545  S
O270        C280   1.279       .  A
O270       Cu277   2.010       .  S
O271        C281   1.278       .  A
O271       Cu277   2.017   1_545  S
O272        C282   1.277       .  A
O272       Cu277   2.016       .  S
O273       Cu278   2.019       .  S
O274       Cu278   2.015   1_545  S
O275       Cu278   2.007       .  S
O276       Cu278   2.008       .  S
C279        C465   1.481       .  S
C280        C475   1.479       .  S
C281        C417   1.476       .  S
C282        C421   1.477       .  S
O283        C293   1.278       .  A
O283       Cu291   2.016   1_545  S
O284        C294   1.278       .  A
O284       Cu291   2.018       .  S
O285        C295   1.277       .  A
O285       Cu291   1.996       .  S
O286        C296   1.279       .  A
O286       Cu291   2.013       .  S
O287        C296   1.277       .  A
O287       Cu292   2.000       .  S
O288        C295   1.280       .  A
O288       Cu292   2.019       .  S
O289        C294   1.278       .  A
O289       Cu292   2.017       .  S
O290        C293   1.279       .  A
O290       Cu292   2.020   1_545  S
Cu291      Cu292   2.373       .  S
C293        C409   1.477       .  S
C294        C413   1.475       .  S
C295        C447   1.480       .  S
C296        C437   1.479       .  S
O297        C787   1.278       .  A
O297       Cu305   2.016       .  S
O298        C308   1.279       .  A
O298       Cu305   2.015       .  S
O299        C789   1.280       .  A
O300        C790   1.276       .  A
O300       Cu305   1.997       .  S
O301        C310   1.278   1_455  A
O301       Cu306   2.012       .  S
O302        C309   1.276   1_455  A
O303        C788   1.278       .  A
O303       Cu306   2.014       .  S
O304        C307   1.279   1_455  A
O304       Cu306   2.015       .  S
Cu305      Cu786   2.376       .  S
Cu306      Cu785   2.376   1_455  S
C307        O777   1.277       .  A
C307        C458   1.475       .  S
C308        O783   1.278       .  A
C308        C366   1.471       .  S
C309        O779   1.279       .  A
C309        C801   1.468       .  S
C310        O780   1.276       .  A
C310        C802   1.464       .  S
O311        C321   1.276       .  A
O311       Cu319   2.001       .  S
O312        C322   1.277       .  A
O312       Cu319   2.004       .  S
O313        C323   1.279       .  A
O313       Cu319   2.019       .  S
O314        C324   1.279       .  A
O314       Cu319   2.019       .  S
O315        C804   1.278   1_455  A
O315       Cu320   2.010       .  S
O316        C803   1.277   1_455  A
O316       Cu320   2.009       .  S
O317        C802   1.276   1_455  A
O317       Cu320   2.003       .  S
O318        C801   1.279   1_455  A
O318       Cu320   2.015       .  S
Cu319      Cu800   2.376       .  S
Cu320      Cu799   2.376   1_455  S
C321        O798   1.280       .  A
C321        C789   1.468       .  S
C322        O797   1.277       .  A
C322        C790   1.464       .  S
C323        O796   1.276       .  A
C323        C430   1.471       .  S
C324        O795   1.277       .  A
C324        C378   1.470       .  S
O325        C335   1.278       .  A
O326        C336   1.277       .  A
O326       Cu333   2.005       .  S
O327       Cu333   2.017       .  S
O328        C338   1.278       .  A
O329        C338   1.280       .  A
O329       Cu334   2.022       .  S
O330        C337   1.279       .  A
O330       Cu334   2.023       .  S
O331        C336   1.278       .  A
O332        C335   1.277       .  A
O332       Cu334   1.998   1_556  S
C335        C349   1.467       .  S
C336        C350   1.465       .  S
C337        C422   1.476       .  S
C338        C392   1.474       .  S
O339        C349   1.276       .  A
O339       Cu347   1.993       .  S
O340        C350   1.276       .  A
O340       Cu347   2.000       .  S
O341        C351   1.279       .  A
O341       Cu347   2.022       .  S
O342        C352   1.279       .  A
O342       Cu347   2.021       .  S
O343        C352   1.278       .  A
O343       Cu348   2.017       .  S
O344        C351   1.278       .  A
O344       Cu348   2.015       .  S
O345        C350   1.278       .  A
O345       Cu348   2.012       .  S
O346        C349   1.279       .  A
O346       Cu348   2.024       .  S
Cu347      Cu348   2.375       .  S
C351        C414   1.477       .  S
C352        C406   1.474       .  S
O353        C363   1.276       .  A
O354        C364   1.279       .  A
O354       Cu361   2.020       .  S
O355        C365   1.277       .  A
O355       Cu361   2.010       .  S
O356        C366   1.278       .  A
O356       Cu361   2.011       .  S
O357        C846   1.279       .  A
O358        C845   1.279       .  A
O359        C844   1.277   1_455  A
O360        C843   1.278       .  A
O360       Cu362   2.004       .  S
Cu361      Cu602   2.376       .  S
Cu362      Cu601   2.376   1_455  S
C363        O840   1.279       .  A
C363        C379   1.464       .  S
C364        O839   1.277       .  A
C364        C380   1.467       .  S
C365        O838   1.279       .  A
C365        C453   1.474   1_556  S
C366        O837   1.279       .  A
O367        C377   1.279       .  A
O367       Cu375   2.017       .  S
O368        C378   1.278       .  A
O368       Cu375   2.017       .  S
O369        C379   1.280       .  A
O369       Cu375   2.020       .  S
O370        C380   1.278       .  A
O370       Cu375   2.017       .  S
O371        C860   1.277   1_455  A
O371       Cu376   1.998       .  S
O372        C859   1.274   1_455  A
O372       Cu376   1.987       .  S
O373        C858   1.278   1_455  A
O373       Cu376   2.008       .  S
O374        C857   1.277   1_455  A
O374       Cu376   2.009       .  S
Cu375      Cu856   2.376       .  S
Cu376      Cu855   2.376   1_455  S
C377        O854   1.277       .  A
C377        C426   1.473       .  S
C378        O853   1.278       .  A
C379        O852   1.275       .  A
C380        O851   1.277       .  A
O381        C391   1.279       .  A
O381       Cu389   2.023       .  S
O382        C392   1.280       .  A
O382       Cu389   2.021       .  S
O383        C393   1.277       .  A
O383       Cu389   2.008   1_556  S
O384        C394   1.278       .  A
O385        C394   1.277       .  A
O386        C393   1.277       .  A
O386       Cu390   2.003   1_556  S
O387        C392   1.278       .  A
O387       Cu390   2.014       .  S
O388        C391   1.278       .  A
O388       Cu390   2.014       .  S
Cu389      Cu390   2.375       .  S
C391        C418   1.476       .  S
C393        C407   1.464       .  S
C394        C408   1.466       .  S
O395        C405   1.277       .  A
O395       Cu403   2.015       .  S
O396        C406   1.278       .  A
O396       Cu403   2.016       .  S
O397        C407   1.277       .  A
O397       Cu403   2.001       .  S
O398        C408   1.278       .  A
O398       Cu403   2.013       .  S
O399        C408   1.276       .  A
O399       Cu404   2.001       .  S
O400        C407   1.278       .  A
O400       Cu404   2.010       .  S
O401        C406   1.279       .  A
O401       Cu404   2.021       .  S
O402        C405   1.279       .  A
O402       Cu404   2.023       .  S
Cu403      Cu404   2.375       .  S
C405        C410   1.476       .  S
C409        C410   1.343       .  D
C409        H411   1.087       .  S
C410        H412   1.087       .  S
C413        C414   1.344       .  D
C413        H415   1.086       .  S
C414        H416   1.087       .  S
C417        C418   1.344   1_556  D
C417        H419   1.087       .  S
C421        C422   1.342   1_556  D
C421        H423   1.087       .  S
C425        C426   1.341       .  D
C425        H427   1.087       .  S
C426        H908   1.087       .  S
H428        C906   1.087       .  S
C429        C430   1.340       .  D
C429        H431   1.087       .  S
C430        H912   1.087       .  S
H432        C910   1.087   1_455  S
C433        C434   1.406       .  A
C433        C438   1.397       .  A
C433        H439   1.083       .  S
C434        C435   1.405   1_565  A
C435        C436   1.398       .  A
C435        H440   1.082       .  S
C436        C437   1.405   1_545  A
C436        H441   1.082       .  S
C437        C438   1.405       .  A
C438        H442   1.083       .  S
C443        C444   1.406       .  A
C443        C448   1.398       .  A
C443        H449   1.083       .  S
C444        C445   1.405       .  A
C445        C446   1.396       .  A
C445        H450   1.083       .  S
C446        C447   1.406       .  A
C446        H451   1.083       .  S
C447        C448   1.405       .  A
C448        H452   1.082       .  S
C453        C454   1.342   1_554  D
C453        H695   1.087       .  S
C454        H456   1.087       .  S
H455        C693   1.087       .  S
C457        C458   1.341   1_454  D
C458        H940   1.087       .  S
H460        C938   1.087       .  S
C461        C462   1.405       .  A
C461        C466   1.396       .  A
C461        H467   1.083       .  S
C463        C464   1.399       .  A
C463        H468   1.082       .  S
C464        H469   1.082       .  S
C465        C466   1.406       .  A
C466        H470   1.083       .  S
C471        C476   1.395       .  A
C471        H477   1.083       .  S
C472        C473   1.405       .  A
C473        C474   1.397       .  A
C473        H478   1.082       .  S
C474        C475   1.406       .  A
C474        H479   1.083       .  S
C476        H480   1.083       .  S
O481        C491   1.278   1_554  A
O482        C492   1.279   1_544  A
O482       Cu489   2.009       .  S
O483       Cu489   2.013       .  S
O484        C734   1.277       .  A
O484       Cu489   2.012   1_565  S
O485        C494   1.278       .  A
O486        C733   1.277       .  A
O486       Cu490   2.011   1_545  S
O487        C732   1.280       .  A
O488        C731   1.278       .  A
O488       Cu490   2.002       .  S
C491        O728   1.278   1_545  A
C491        C942   1.478       .  S
C492        O727   1.278       .  A
C492        C952   1.481       .  S
C493        O726   1.278       .  A
C493        C934   1.474       .  S
C494        O724   1.277       .  A
C494        C697   1.470       .  S
O495        C505   1.277       .  A
O495       Cu503   2.014   1_565  S
O496        C506   1.279       .  A
O496       Cu503   2.015   1_655  S
O497        C507   1.278       .  A
O498        C508   1.279       .  A
O498       Cu503   2.014   1_665  S
O499        C508   1.277       .  A
O499       Cu504   1.998   1_655  S
O500        C507   1.280   1_565  A
O501        C506   1.276       .  A
O501       Cu504   2.007   1_645  S
O502        C505   1.277       .  A
O502       Cu504   2.005       .  S
Cu503      Cu504   2.375   1_545  S
C505        C669   1.470       .  S
C506        C665   1.469       .  S
C507        C684   1.483       .  S
C508        C674   1.480       .  S
O509        C519   1.279       .  A
O509       Cu517   2.009   1_565  S
O510        C520   1.279       .  A
O510       Cu517   2.011       .  S
O511        C521   1.277       .  A
O511       Cu517   2.011       .  S
O512        C522   1.276       .  A
O512       Cu517   2.008   1_565  S
O513        C762   1.279   1_554  A
O513       Cu518   2.016   1_565  S
O514        C761   1.278   1_554  A
O514       Cu518   2.019       .  S
O515        C760   1.277   1_554  A
O515       Cu518   1.997       .  S
O516        C759   1.279   1_554  A
O516       Cu518   2.011       .  S
Cu517      Cu758   2.372       .  S
Cu518      Cu757   2.373   1_554  S
C519        O756   1.278       .  A
C519        C705   1.481       .  S
C520        O755   1.279       .  A
C520        C715   1.481       .  S
C521        O754   1.279       .  A
C521        C657   1.474       .  S
C522        O753   1.279       .  A
C522        C661   1.472       .  S
O523        C533   1.277       .  A
O523       Cu531   2.014       .  S
O524        C534   1.277       .  A
O524       Cu531   2.016   1_565  S
O525        C535   1.279       .  A
O525       Cu531   2.010       .  S
O526        C536   1.278       .  A
O526       Cu531   2.007   1_565  S
O527        C536   1.279       .  A
O527       Cu532   2.007   1_565  S
O528        C535   1.279       .  A
O528       Cu532   2.013       .  S
O529        C534   1.278       .  A
O529       Cu532   2.011   1_565  S
O530        C533   1.279       .  A
O530       Cu532   2.016       .  S
Cu531      Cu532   2.371       .  S
C533        C649   1.475       .  S
C534        C653   1.473       .  S
C535        C687   1.483       .  S
C536        C677   1.479       .  S
O537       Cu545   2.001       .  S
O538        C548   1.276   1_655  A
O538       Cu545   2.003       .  S
O539       Cu785   2.011   1_554  S
O540       Cu545   2.003       .  S
O541        C550   1.277       .  A
O541       Cu546   2.007       .  S
O542        C549   1.278       .  A
O542       Cu786   2.007   1_554  S
O543       Cu546   2.012       .  S
O544        C547   1.278       .  A
O544       Cu546   2.014       .  S
Cu545       O779   2.019       .  S
Cu546       O782   2.002       .  S
C547        C698   1.469       .  S
C548        C606   1.468       .  S
O551        C561   1.279       .  A
O551       Cu559   2.015       .  S
O552        C562   1.277       .  A
O552       Cu559   2.001       .  S
O553        C563   1.276       .  A
O553       Cu559   2.005       .  S
O554        C564   1.277   1_655  A
O554       Cu559   2.006       .  S
O555       Cu560   2.013       .  S
O556       Cu560   2.015       .  S
O557       Cu560   2.005       .  S
O558       Cu560   1.998       .  S
C563        C670   1.469       .  S
C564        C618   1.468       .  S
O565        C575   1.276       .  A
O565       Cu813   1.998       .  S
O566        C576   1.278       .  A
O566       Cu573   2.006       .  S
O567        C817   1.277       .  A
O567       Cu573   2.012       .  S
O568        C578   1.279       .  A
O568       Cu813   2.013       .  S
O569        C578   1.278       .  A
O569       Cu574   2.015       .  S
O570        C577   1.277       .  A
O570       Cu574   2.012       .  S
O571        C576   1.277       .  A
O571       Cu814   2.008       .  S
O572        C575   1.279       .  A
O572       Cu574   2.020       .  S
Cu573       O805   2.018   1_554  S
Cu573       O808   2.013       .  S
Cu573      Cu814   2.375       .  S
Cu574       O811   2.009       .  S
Cu574      Cu813   2.376       .  S
C575        C589   1.467       .  S
C576        C590   1.465       .  S
C577        O807   1.278       .  A
C577        C662   1.473       .  S
C578        C632   1.471       .  S
O579        C589   1.277       .  A
O579       Cu587   2.010       .  S
O580        C590   1.279       .  A
O580       Cu587   2.016       .  S
O581        C591   1.277       .  A
O581       Cu587   2.012       .  S
O582        C592   1.278       .  A
O582       Cu587   2.016       .  S
O583        C592   1.279       .  A
O583       Cu588   2.015       .  S
O584        C591   1.278       .  A
O584       Cu588   2.016       .  S
O585        C590   1.276       .  A
O585       Cu588   1.998       .  S
O586        C589   1.278       .  A
O586       Cu588   2.009       .  S
Cu587      Cu588   2.376       .  S
C591        C654   1.473       .  S
C592        C646   1.472       .  S
O593        C603   1.278   1_655  A
O593       Cu841   2.006   1_554  S
O594        C604   1.278   1_655  A
O594       Cu601   2.003       .  S
O595        C605   1.278   1_655  A
O595       Cu601   2.013       .  S
O596        C606   1.279   1_655  A
O596       Cu601   2.013       .  S
O597       Cu842   2.004       .  S
O598       Cu842   2.004       .  S
O599       Cu842   2.024       .  S
O600       Cu602   2.006   1_554  S
Cu601       O833   2.008       .  S
Cu602       O837   2.018       .  S
Cu602       O838   2.020       .  S
Cu602       O839   1.999       .  S
C603        C619   1.465       .  S
C604        C620   1.471       .  S
C605        C693   1.468       .  S
O607        C617   1.279   1_655  A
O607       Cu615   2.013       .  S
O608        C618   1.278   1_655  A
O608       Cu615   2.009       .  S
O609        C619   1.275   1_655  A
O609       Cu615   1.995       .  S
O610        C620   1.276   1_655  A
O610       Cu615   1.994       .  S
O611       Cu616   2.027       .  S
O612       Cu616   2.011       .  S
O613       Cu616   2.008       .  S
O614       Cu616   2.004       .  S
C617        C666   1.473       .  S
O621        C631   1.276       .  A
O621       Cu629   2.007       .  S
O622        C632   1.277       .  A
O622       Cu629   2.006       .  S
O623        C633   1.279       .  A
O623       Cu629   2.015       .  S
O624        C634   1.276       .  A
O624       Cu869   2.001       .  S
O625        C634   1.279       .  A
O625       Cu870   2.016       .  S
O626        C633   1.276       .  A
O626       Cu630   2.000       .  S
O627        C632   1.279       .  A
O627       Cu630   2.022       .  S
O628        C631   1.279       .  A
O628       Cu630   2.021       .  S
Cu629       O864   2.005       .  S
Cu629      Cu630   2.376       .  S
Cu630       O865   2.009       .  S
C631        C658   1.472       .  S
C633        C647   1.466       .  S
C634        C648   1.467       .  S
O635        C645   1.279       .  A
O635       Cu643   2.020       .  S
O636        C646   1.279       .  A
O636       Cu643   2.018       .  S
O637        C647   1.278       .  A
O637       Cu643   2.011       .  S
O638        C648   1.276       .  A
O638       Cu643   2.005       .  S
O639        C648   1.279       .  A
O639       Cu644   2.013       .  S
O640        C647   1.276       .  A
O640       Cu644   2.004       .  S
O641        C646   1.278       .  A
O641       Cu644   2.013       .  S
O642        C645   1.277       .  A
O642       Cu644   2.011       .  S
Cu643      Cu644   2.376       .  S
C645        C650   1.473       .  S
C649        C650   1.341       .  D
C649        H651   1.087       .  S
C650        H652   1.087       .  S
C653        C654   1.342       .  D
C653        H655   1.087       .  S
C654        H656   1.087       .  S
C657        C658   1.340       .  D
C657        H659   1.087       .  S
C658        H900   1.087       .  S
H660        C898   1.086       .  S
C661        C662   1.340       .  D
C661        H663   1.087       .  S
C662        H904   1.087       .  S
H664        C902   1.087       .  S
C665        C666   1.340   1_655  D
C665        H667   1.086       .  S
C669        C670   1.340   1_455  D
C669        H671   1.087       .  S
C673        C674   1.406       .  A
C673        C678   1.396       .  A
C673        H679   1.083       .  S
C674        C675   1.405       .  A
C675        C676   1.398       .  A
C675        H680   1.083   1_565  S
C676        C677   1.406       .  A
C676        H681   1.083   1_565  S
C677        C678   1.405       .  A
C678        H682   1.083       .  S
C683        C684   1.406       .  A
C683        C688   1.399       .  A
C683        H689   1.082   1_545  S
C684        C685   1.406       .  A
C685        C686   1.398       .  A
C685        H690   1.083       .  S
C686        C687   1.406       .  A
C686        H691   1.083       .  S
C687        C688   1.406       .  A
C688        H692   1.082   1_545  S
C693        C694   1.340   1_455  D
C694        C733   1.470       .  S
C694        H696   1.087       .  S
C697        C698   1.340       .  D
C697        H939   1.087       .  S
H699        C937   1.087       .  S
C701        C702   1.406       .  A
C701        C706   1.397       .  A
C701        H707   1.083       .  S
C702        C731   1.481       .  S
C702        C943   1.405       .  A
C703        C942   1.405   1_554  A
C703        C704   1.396       .  A
C703        H708   1.083   1_545  S
C704        C945   1.404   1_554  A
C704        H709   1.083   1_545  S
C705        C944   1.407       .  A
C705        C706   1.405       .  A
C706        H710   1.083       .  S
C711        C952   1.405   1_554  A
C711        C716   1.397   1_565  A
C711        H717   1.083   1_565  S
C712        C732   1.482       .  S
C712        C951   1.406       .  A
C712        C713   1.406       .  A
C713        C714   1.399       .  A
C713        H718   1.082   1_545  S
C714        C715   1.406       .  A
C714        H719   1.082   1_545  S
C715        C956   1.405       .  A
C716        C955   1.406   1_544  A
C716        H720   1.083       .  S
O721        C731   1.279       .  A
O722        C732   1.278       .  A
O722       Cu729   2.001       .  S
O723       Cu729   2.011       .  S
O724       Cu729   2.013   1_565  S
O725        C734   1.279   1_556  A
O726       Cu730   2.018   1_545  S
O728       Cu730   2.006   1_655  S
C734        C937   1.473       .  S
O735        C745   1.277       .  A
O735       Cu743   2.012   1_565  S
O736        C746   1.278       .  A
O736       Cu743   2.013       .  S
O737        C747   1.279       .  A
O738        C748   1.278       .  A
O738       Cu743   2.005       .  S
O739        C748   1.278   1_565  A
O739       Cu744   2.001       .  S
O740        C747   1.277   1_565  A
O741        C746   1.277       .  A
O741       Cu744   2.012   1_545  S
O742        C745   1.278       .  A
O742       Cu744   2.013       .  S
Cu743      Cu744   2.372   1_545  S
C745        C909   1.472       .  S
C746        C905   1.471       .  S
C747        C924   1.480       .  S
C748        C914   1.477       .  S
O749        C759   1.277       .  A
O749       Cu757   1.999       .  S
O750        C760   1.280       .  A
O750       Cu757   2.018       .  S
O751        C761   1.278       .  A
O751       Cu757   2.018       .  S
O752        C762   1.278       .  A
O752       Cu757   2.016   1_565  S
O753       Cu758   2.017   1_565  S
O754       Cu758   2.016       .  S
O755       Cu758   2.008       .  S
O756       Cu758   2.008   1_565  S
C759        C945   1.478       .  S
C760        C955   1.481   1_545  S
C761        C897   1.477       .  S
C762        C901   1.477       .  S
O763        C773   1.277       .  A
O763       Cu771   2.015       .  S
O764        C774   1.278       .  A
O764       Cu771   2.016   1_565  S
O765        C775   1.276       .  A
O765       Cu771   1.993       .  S
O766        C776   1.278       .  A
O766       Cu771   2.007       .  S
O767        C776   1.277       .  A
O767       Cu772   1.998       .  S
O768        C775   1.280       .  A
O768       Cu772   2.020       .  S
O769        C774   1.279       .  A
O769       Cu772   2.022   1_565  S
O770        C773   1.279       .  A
O770       Cu772   2.021       .  S
Cu771      Cu772   2.374       .  S
C773        C889   1.476       .  S
C774        C893   1.476       .  S
C775        C927   1.480       .  S
C776        C917   1.477       .  S
O777       Cu785   2.013       .  S
O778        C788   1.278   1_655  A
O778       Cu785   2.010       .  S
O780       Cu785   1.998       .  S
O781        C790   1.278       .  A
O781       Cu786   2.014       .  S
O782        C789   1.276       .  A
O783       Cu786   2.013       .  S
O784        C787   1.278       .  A
O784       Cu786   2.014       .  S
C787        C938   1.474       .  S
C788        C846   1.469       .  S
O791        C801   1.277       .  A
O791       Cu799   2.005       .  S
O792        C802   1.278       .  A
O792       Cu799   2.008       .  S
O793        C803   1.279       .  A
O793       Cu799   2.018       .  S
O794        C804   1.278       .  A
O794       Cu799   2.016       .  S
O795       Cu800   2.005       .  S
O796       Cu800   2.005       .  S
O797       Cu800   2.008       .  S
O798       Cu800   2.019       .  S
C803        C910   1.472       .  S
C804        C858   1.470       .  S
O805        C815   1.278       .  A
O806        C816   1.277       .  A
O806       Cu813   2.004       .  S
O807       Cu813   2.013       .  S
O808        C818   1.278       .  A
O809        C818   1.279       .  A
O809       Cu814   2.020       .  S
O810        C817   1.279       .  A
O810       Cu814   2.023       .  S
O811        C816   1.278       .  A
O812        C815   1.277       .  A
O812       Cu814   1.998   1_556  S
C815        C829   1.466       .  S
C816        C830   1.465       .  S
C817        C902   1.474       .  S
C818        C872   1.473       .  S
O819        C829   1.276       .  A
O819       Cu827   1.996       .  S
O820        C830   1.276       .  A
O820       Cu827   2.003       .  S
O821        C831   1.279       .  A
O821       Cu827   2.026       .  S
O822        C832   1.280       .  A
O822       Cu827   2.023       .  S
O823        C832   1.278       .  A
O823       Cu828   2.011       .  S
O824        C831   1.278       .  A
O824       Cu828   2.013       .  S
O825        C830   1.278       .  A
O825       Cu828   2.009       .  S
O826        C829   1.279       .  A
O826       Cu828   2.020       .  S
Cu827      Cu828   2.375       .  S
C831        C894   1.479       .  S
C832        C886   1.473       .  S
O833        C843   1.276   1_655  A
O834        C844   1.279       .  A
O834       Cu841   2.020       .  S
O835        C845   1.276   1_655  A
O835       Cu841   2.005       .  S
O836        C846   1.277   1_655  A
O836       Cu841   2.004       .  S
O840       Cu842   2.008       .  S
C843        C859   1.465   1_455  S
C844        C860   1.467       .  S
C845        C933   1.471       .  S
O847        C857   1.279       .  A
O847       Cu855   2.017       .  S
O848        C858   1.279       .  A
O848       Cu855   2.018       .  S
O849        C859   1.280       .  A
O849       Cu855   2.024       .  S
O850        C860   1.279       .  A
O850       Cu855   2.020       .  S
O851       Cu856   2.002       .  S
O852       Cu856   1.990       .  S
O853       Cu856   2.007       .  S
O854       Cu856   2.011       .  S
C857        C906   1.473   1_655  S
O861        C871   1.278       .  A
O861       Cu869   2.020       .  S
O862        C872   1.279       .  A
O862       Cu869   2.019       .  S
O863        C873   1.277       .  A
O863       Cu869   2.007   1_556  S
O864        C874   1.278       .  A
O865        C874   1.277       .  A
O866        C873   1.277       .  A
O866       Cu870   2.002   1_556  S
O867        C872   1.278       .  A
O867       Cu870   2.016       .  S
O868        C871   1.278       .  A
O868       Cu870   2.017       .  S
Cu869      Cu870   2.375       .  S
C871        C898   1.477       .  S
C873        C887   1.464       .  S
C874        C888   1.466       .  S
O875        C885   1.278       .  A
O875       Cu883   2.017       .  S
O876        C886   1.278       .  A
O876       Cu883   2.018       .  S
O877        C887   1.277       .  A
O877       Cu883   2.001       .  S
O878        C888   1.278       .  A
O878       Cu883   2.014       .  S
O879        C888   1.277       .  A
O879       Cu884   2.002       .  S
O880        C887   1.278       .  A
O880       Cu884   2.009       .  S
O881        C886   1.279       .  A
O881       Cu884   2.016       .  S
O882        C885   1.279       .  A
O882       Cu884   2.020       .  S
Cu883      Cu884   2.375       .  S
C885        C890   1.476       .  S
C889        C890   1.342       .  D
C889        H891   1.087       .  S
C890        H892   1.087       .  S
C893        C894   1.344       .  D
C893        H895   1.086       .  S
C894        H896   1.087       .  S
C897        C898   1.344   1_556  D
C897        H899   1.087       .  S
C901        C902   1.342   1_556  D
C901        H903   1.087       .  S
C905        C906   1.340   1_655  D
C905        H907   1.087       .  S
C909        C910   1.340       .  D
C909        H911   1.087       .  S
C913        C914   1.404   1_565  A
C913        C918   1.395       .  A
C913        H919   1.082       .  S
C914        C915   1.405       .  A
C915        C916   1.397       .  A
C915        H920   1.083       .  S
C916        C917   1.405       .  A
C916        H921   1.083       .  S
C917        C918   1.405   1_545  A
C918        H922   1.083       .  S
C923        C924   1.407       .  A
C923        C928   1.398       .  A
C923        H929   1.083       .  S
C924        C925   1.404       .  A
C925        C926   1.397       .  A
C925        H930   1.083       .  S
C926        C927   1.407       .  A
C926        H931   1.083       .  S
C927        C928   1.404       .  A
C928        H932   1.082       .  S
C933        C934   1.341       .  D
C934        H936   1.087       .  S
C937        C938   1.342   1_554  D
C941        C942   1.405       .  A
C941        C946   1.397       .  A
C941        H947   1.083       .  S
C943        C944   1.399       .  A
C943        H948   1.083       .  S
C944        H949   1.082       .  S
C945        C946   1.406       .  A
C946        H950   1.082       .  S
C951        C956   1.397       .  A
C951        H957   1.083       .  S
C952        C953   1.406       .  A
C953        C954   1.399       .  A
C953        H958   1.082       .  S
C954        C955   1.405       .  A
C954        H959   1.083       .  S
C956        H960   1.083       .  S
