geometry optimzed in LAMMPS
_audit_creation_date              2020-11-30 
_audit_creation_method            'lammps2cif' 
_symmetry_space_group_name_H-M    'P1' 
_symmetry_Int_Tables_number       1 
_symmetry_cell_setting            triclinic 
loop_ 
_symmetry_equiv_pos_as_xyz 
  x,y,z 
_cell_length_a                    34.9305018212413 
_cell_length_b                    34.92753600675927 
_cell_length_c                    26.3152601387798 
_cell_angle_alpha                 89.94424708144066 
_cell_angle_beta                  90.06551280288548 
_cell_angle_gamma                 120.02002144167339 
loop_ 
_atom_site_label 
_atom_site_type_symbol 
_atom_site_fract_x 
_atom_site_fract_y 
_atom_site_fract_z 
_atom_site_charge 
C1          C  0.76462228  0.49128614  0.50175199    -0.00370
C2          C  0.72401349  0.48721783  0.00228041    -0.00370
C3          C  0.48232993  0.20793199  0.00182117    -0.00370
C4          C  0.48387750  0.24740102  0.00060188    -0.00370
C5          C  0.75840887  0.25169806  0.50257469    -0.00370
C6          C  0.71815231  0.21465075  0.00311808    -0.00370
C7          C  0.49882599  0.75503405  0.00174793    -0.00370
C8          C  0.49644744  0.71519671  0.00308365    -0.00370
C9          C  0.21721791  0.47400811  0.50256806    -0.00370
C10         C  0.25609424  0.47432296  0.00203709    -0.00370
C11         C  0.22131151  0.71169115  0.50098754    -0.00370
C12         C  0.25989692  0.75051320  0.00186354    -0.00370
O13         O  0.91431186  0.37217816  0.35577106    -0.76230
O14         O  0.86288324  0.38095456  0.31164024    -0.55130
C15         C  0.87423462  0.36240747  0.34610576     0.77500
O16         O  0.06789438  0.59425948  0.35105917    -0.60830
O17         O  0.11895611  0.58423653  0.30815652    -0.53860
C18         C  0.10791238  0.60391996  0.34144141     0.69520
O19         O  0.91873363  0.52072167  0.35410597    -0.75390
O20         O  0.86503692  0.46224557  0.30999749    -0.55950
C21         C  0.87800192  0.49242984  0.34436179     0.75520
O22         O  0.06341739  0.44196774  0.35449882    -0.60530
O23         O  0.11573080  0.50219604  0.31093592    -0.53650
C24         C  0.10364282  0.47187056  0.34498004     0.72110
Zr25       Zr  0.98936235  0.42401796  0.32713779     2.54710
O26         O  0.99008865  0.42355842  0.41962632    -0.81100
O27         O  0.98710444  0.35332410  0.32159729    -0.94510
Zr28       Zr  0.99260252  0.53984529  0.32602124     2.64680
O29         O  0.99295739  0.54092068  0.41858500    -0.99470
O30         O  0.99420492  0.61026304  0.32103754    -0.81530
O31         O  0.94857448  0.46163277  0.32772500    -0.84890
O32         O  0.03326655  0.50226891  0.32752975    -2.19600
O33         O  0.06264711  0.44097661  0.15167566    -0.68280
O34         O  0.11617450  0.50038363  0.19463986    -0.52840
C35         C  0.10333559  0.46961701  0.16102635     0.70490
O36         O  0.91787250  0.52021098  0.14873555    -0.61180
O37         O  0.86508883  0.46098704  0.19295323    -0.53160
C38         C  0.87745971  0.49114896  0.15862174     0.72300
O39         O  0.06631306  0.59229672  0.14991235    -0.72580
O40         O  0.11801088  0.58311066  0.19273434    -0.51260
C41         C  0.10644305  0.60215560  0.15906889     0.73680
O42         O  0.91417946  0.37093270  0.15039311    -0.67910
O43         O  0.86265352  0.37922731  0.19461950    -0.55110
C44         C  0.87407269  0.36058658  0.16034293     0.72060
Zr45       Zr  0.98880172  0.42340611  0.17802846     2.77540
O46         O  0.98821010  0.42153640  0.08546940    -0.98660
O47         O  0.98583599  0.35242848  0.18420137    -0.79480
Zr48       Zr  0.99164423  0.53889300  0.17694398     2.70430
O49         O  0.99224734  0.54029328  0.08445562    -0.80730
O50         O  0.99234918  0.60878073  0.18302881    -0.99810
Zr51       Zr  0.90506341  0.44053925  0.25228911     2.21500
Zr52       Zr  0.07598319  0.52257251  0.25139956     2.11130
O53         O  0.03254000  0.50147618  0.17580629    -2.48500
O54         O  0.94774768  0.46070111  0.17643548    -0.80520
O55         O  0.03299704  0.44376133  0.25234632    -0.72710
O56         O  0.94833672  0.51935921  0.25173213    -2.33670
O57         O  0.94521716  0.40172862  0.25273199    -2.29880
O58         O  0.03603919  0.56150219  0.25115570    -0.74470
H59         H  0.05202771  0.51150769  0.35723688     0.77520
H60         H  0.92972247  0.53252229  0.25157267     0.78610
H61         H  0.05102615  0.51020921  0.14590746     0.80840
H62         H  0.92539066  0.37012337  0.25289123     0.78440
H63         H  0.96810805  0.60415676  0.30025995     0.41480
H64         H  0.01849459  0.62777392  0.20428741     0.40450
H65         H  0.98192798  0.50930948  0.07444765     0.40130
H66         H  0.01327272  0.45052656  0.07501556     0.38060
H67         H  0.00878605  0.35727902  0.20957488     0.41190
H68         H  0.95852432  0.33314013  0.30498632     0.35980
H69         H  0.98097225  0.44518144  0.42949338     0.42090
H70         H  0.01759681  0.53614043  0.42853324     0.38510
H71         H  0.99762821  0.39993471  0.07662623     0.43430
H72         H  0.98322275  0.34275978  0.35717096     0.42150
H73         H  0.00330837  0.57211498  0.42762082     0.42290
H74         H  0.00061078  0.62170696  0.14853504     0.42640
O75         O  0.45425070  0.37234787  0.14771061    -0.76230
O76         O  0.51358981  0.37861354  0.19139284    -0.55130
C77         C  0.48342013  0.36100698  0.15700310     0.77500
O78         O  0.52815692  0.59462192  0.15331841    -0.60830
O79         O  0.46813786  0.58701733  0.19642909    -0.53860
C80         C  0.49897083  0.60581974  0.16295726     0.69520
O81         O  0.60113051  0.51911855  0.14992242    -0.75390
O82         O  0.59499675  0.45984900  0.19350899    -0.55950
C83         C  0.61282605  0.49025206  0.15941870     0.75520
O84         O  0.37770436  0.44427947  0.15110731    -0.60530
O85         O  0.38700742  0.50527440  0.19386043    -0.53650
C86         C  0.36786387  0.47451805  0.16043453     0.72110
Zr87       Zr  0.43316471  0.42527189  0.17698599     2.54710
O88         O  0.43196951  0.42597334  0.08450683    -0.81100
O89         O  0.36382082  0.35531665  0.18165151    -0.94510
Zr90       Zr  0.54722228  0.53917076  0.17811934     2.64680
O91         O  0.54743358  0.53983151  0.08554325    -0.99470
O92         O  0.61689736  0.60884082  0.18224791    -0.81530
O93         O  0.51146837  0.46095718  0.17583949    -0.84890
O94         O  0.46901977  0.50349298  0.17662665    -2.19600
O95         O  0.37829555  0.44275717  0.35257801    -0.68280
O96         O  0.38518228  0.50282154  0.31005773    -0.52840
C97         C  0.36683730  0.47188158  0.34350136     0.70490
O98         O  0.60073646  0.51705122  0.35582382    -0.61180
O99         O  0.59255306  0.45728727  0.31107815    -0.53160
C100        C  0.61063983  0.48696623  0.34581285     0.72300
O101        O  0.52800152  0.59308909  0.35488202    -0.72580
O102        O  0.46662230  0.58383998  0.31285559    -0.51260
C103        C  0.49745725  0.60270374  0.34623710     0.73680
O104        O  0.45358752  0.36925604  0.35235731    -0.67910
O105        O  0.51328455  0.37703750  0.30818279    -0.55110
C106        C  0.48294160  0.35836813  0.34215239     0.72060
Zr107      Zr  0.43354733  0.42385334  0.32601429     2.77540
O108        O  0.43344033  0.42237017  0.41857302    -0.98660
O109        O  0.36436110  0.35386904  0.32054152    -0.79480
Zr110      Zr  0.54750704  0.53827962  0.32708177     2.70070
O111        O  0.54852782  0.53987666  0.41956255    -0.80730
O112        O  0.61777117  0.60699104  0.31996736    -0.99810
Zr113      Zr  0.53316500  0.43880175  0.25096197     2.21500
Zr114      Zr  0.44738702  0.52431887  0.25287270     2.11130
O115        O  0.46919935  0.50208443  0.32816485    -2.48500
O116        O  0.51180167  0.45988313  0.32705803    -0.80520
O117        O  0.41028992  0.44543738  0.25208487    -0.72710
O118        O  0.57028570  0.51774219  0.25217792    -2.33670
O119        O  0.45425983  0.40166613  0.25090598    -2.29880
O120        O  0.52630807  0.56167611  0.25300325    -0.74470
H121        H  0.45977668  0.51311643  0.14700262     0.77520
H122        H  0.60198724  0.53025523  0.25228254     0.78610
H123        H  0.45979392  0.51098654  0.35819367     0.80840
H124        H  0.44173393  0.36996382  0.25052377     0.78440
H125        H  0.63587698  0.60294640  0.20513022     0.41480
H126        H  0.61098154  0.62665340  0.29948196     0.40450
H127        H  0.52819731  0.50883505  0.42970198     0.40130
H128        H  0.43786158  0.45153995  0.42901231     0.38060
H129        H  0.34703106  0.35886198  0.29424091     0.41190
H130        H  0.37142586  0.33467808  0.19860901     0.35980
H131        H  0.46330631  0.44512337  0.07465961     0.42090
H132        H  0.51830941  0.53593112  0.07577879     0.38510
H133        H  0.40243817  0.40108300  0.42791070     0.43430
H134        H  0.35742942  0.34486623  0.14602911     0.42150
H135        H  0.56893797  0.57079342  0.07625935     0.42290
H136        H  0.62348180  0.61978571  0.35458275     0.42640
O137        O  0.60028695  0.05744033  0.15009051    -0.76230
O138        O  0.59254489  0.10895975  0.19506554    -0.55130
C139        C  0.61087816  0.09758329  0.16040480     0.77500
O140        O  0.37818437  0.90458228  0.15135084    -0.60830
O141        O  0.38775635  0.85321695  0.19443032    -0.53860
C142        C  0.36825173  0.86447437  0.16100113     0.69520
O143        O  0.45123066  0.05393135  0.14891838    -0.75390
O144        O  0.51080362  0.10653579  0.19286160    -0.55950
C145        C  0.48057723  0.09434896  0.15869713     0.75520
O146        O  0.53097032  0.90881138  0.15030661    -0.60530
O147        O  0.47016350  0.85620941  0.19262990    -0.53650
C148        C  0.50096227  0.86850324  0.15920310     0.72110
Zr149      Zr  0.54829269  0.98254221  0.17777366     2.54710
O150        O  0.54936427  0.98234214  0.08528513    -0.81100
O151        O  0.61892816  0.98469443  0.18352587    -0.94510
Zr152      Zr  0.43266178  0.97973261  0.17650650     2.64680
O153        O  0.43400682  0.97990621  0.08394672    -0.99470
O154        O  0.36210563  0.97796295  0.17894641    -0.81530
O155        O  0.51085528  0.02352808  0.17612431    -0.84890
O156        O  0.47012185  0.93881800  0.17597577    -2.19600
O157        O  0.53046669  0.90888734  0.35254134    -0.68280
O158        O  0.47134600  0.85541655  0.30902186    -0.52840
C159        C  0.50198932  0.86820022  0.34286433     0.70490
O160        O  0.45191940  0.05277085  0.35504358    -0.61180
O161        O  0.50928723  0.10642562  0.30962394    -0.53160
C162        C  0.47980992  0.09346625  0.34479845     0.72300
O163        O  0.37857511  0.90439911  0.35217128    -0.72580
O164        O  0.38848255  0.85304565  0.30982104    -0.51260
C165        C  0.36903607  0.86437077  0.34311623     0.73680
O166        O  0.59890044  0.05797627  0.35704957    -0.67910
O167        O  0.58900209  0.10860336  0.31256573    -0.55110
C168        C  0.60747515  0.09768880  0.34749724     0.72060
Zr169      Zr  0.54817563  0.98303602  0.32688609     2.77540
O170        O  0.55020164  0.98213256  0.41941522    -0.98660
O171        O  0.61977564  0.98750965  0.31964742    -0.79480
Zr172      Zr  0.43206883  0.97919315  0.32570618     2.70070
O173        O  0.42800571  0.97730101  0.41807964    -0.80730
O174        O  0.36264008  0.97921036  0.31785788    -0.99810
Zr175      Zr  0.53087808  0.06632915  0.25192330     2.21500
Zr176      Zr  0.44930482  0.89567590  0.25184878     2.11130
O177        O  0.46994489  0.93881676  0.32768221    -2.48500
O178        O  0.51016111  0.02332362  0.32752737    -0.80520
O179        O  0.52813383  0.93884261  0.25245985    -0.72710
O180        O  0.45211911  0.02315118  0.25131008    -2.33670
O181        O  0.57016550  0.02667491  0.25226283    -2.29880
O182        O  0.41032627  0.93557889  0.25106875    -0.74470
H183        H  0.46121505  0.92018311  0.14619701     0.77520
H184        H  0.43895564  0.04176323  0.25137852     0.78610
H185        H  0.46094279  0.92016788  0.35747965     0.80840
H186        H  0.60173680  0.04665550  0.25257923     0.78440
H187        H  0.36645271  0.00108239  0.20376879     0.41480
H188        H  0.34339012  0.95252448  0.29751701     0.40450
H189        H  0.45768224  0.98361674  0.42926279     0.40130
H190        H  0.52096614  0.95733249  0.42962546     0.38060
H191        H  0.61448806  0.96302831  0.29645908     0.41190
H192        H  0.63878395  0.01267985  0.20142235     0.35980
H193        H  0.53029153  0.99457053  0.07522279     0.42090
H194        H  0.43852707  0.95500012  0.07458668     0.38510
H195        H  0.57130874  0.97193480  0.42773220     0.43430
H196        H  0.63009762  0.98983480  0.14817045     0.42150
H197        H  0.40316016  0.97007751  0.07373370     0.42290
H198        H  0.34977099  0.97207748  0.35243393     0.42640
C199        C  0.33730283  0.79207449  0.38931283    -0.14280
C200        C  0.33491014  0.82980331  0.37583738     0.07870
C201        C  0.30329589  0.83741649  0.39953476    -0.14280
C202        C  0.27668361  0.80962352  0.43825139    -0.14280
C203        C  0.28164048  0.77414611  0.45444484     0.07870
C204        C  0.31101876  0.76458385  0.42876913    -0.14280
H205        H  0.36152309  0.78555958  0.37183807     0.11850
H206        H  0.30042752  0.86597862  0.38956033     0.11850
H207        H  0.25355298  0.81696826  0.45700748     0.11850
H208        H  0.31512758  0.73722092  0.44094765     0.11850
C209        C  0.27564863  0.80927535  0.06573090    -0.14280
C210        C  0.28045751  0.77357032  0.05010310     0.07870
C211        C  0.30932657  0.76380666  0.07672307    -0.14280
C212        C  0.33521683  0.79125338  0.11646015    -0.14280
C213        C  0.33361054  0.82960611  0.12877677     0.07870
C214        C  0.30229840  0.83732791  0.10435665    -0.14280
H215        H  0.25286907  0.81679772  0.04633661     0.11850
H216        H  0.31335514  0.73628031  0.06513393     0.11850
H217        H  0.35845489  0.78406492  0.13524162     0.11850
H218        H  0.29977203  0.86619741  0.11360029     0.11850
C219        C  0.13632135  0.67089071  0.39642561    -0.14280
C220        C  0.14294713  0.63831934  0.37360396     0.07870
C221        C  0.18013625  0.63515824  0.38763916    -0.14280
C222        C  0.20735649  0.66082113  0.42761598    -0.14280
C223        C  0.19861502  0.69103605  0.45264042     0.07870
C224        C  0.16428014  0.69739733  0.43520317    -0.14280
H225        H  0.10833644  0.67452638  0.38580664     0.11850
H226        H  0.18644969  0.61087792  0.37006485     0.11850
H227        H  0.23388826  0.65567631  0.44058026     0.11850
H228        H  0.15765234  0.72125525  0.45338929     0.11850
C229        C  0.20734039  0.66147933  0.07514432    -0.14280
C230        C  0.19726680  0.68998972  0.04820907     0.07870
C231        C  0.16070052  0.69371657  0.06265959    -0.14280
C232        C  0.13260817  0.66693558  0.10106851    -0.14280
C233        C  0.14089539  0.63627367  0.12616261     0.07870
C234        C  0.17949186  0.63498391  0.11426213    -0.14280
H235        H  0.23542129  0.65815992  0.06419331     0.11850
H236        H  0.15279366  0.71601924  0.04278657     0.11850
H237        H  0.10336964  0.66896953  0.10975282     0.11850
H238        H  0.18655397  0.61149572  0.13278303     0.11850
C239        C  0.27828671  0.43301359  0.44395391    -0.14280
C240        C  0.27708497  0.47170558  0.45428435     0.07870
C241        C  0.30087983  0.50895109  0.42323117    -0.14280
C242        C  0.32788409  0.50824210  0.38424180    -0.14280
C243        C  0.33164863  0.47038055  0.37634407     0.07870
C244        C  0.30518770  0.43228434  0.40538786    -0.14280
H245        H  0.25994157  0.40389766  0.46738670     0.11850
H246        H  0.30046817  0.53918782  0.43100814     0.11850
H247        H  0.34783816  0.53809890  0.36253206     0.11850
H248        H  0.30685397  0.40241334  0.39998321     0.11850
C249        C  0.26918033  0.43545320  0.07390011    -0.14280
C250        C  0.27908924  0.47506398  0.04955926     0.07870
C251        C  0.31508699  0.51499489  0.06625616    -0.14280
C252        C  0.34208512  0.51514273  0.10556158    -0.14280
C253        C  0.33400995  0.47518802  0.12769135     0.07870
C254        C  0.29679533  0.43544083  0.11238093    -0.14280
H255        H  0.24157560  0.40437578  0.06117047     0.11850
H256        H  0.32337754  0.54573694  0.04729855     0.11850
H257        H  0.37101414  0.54604315  0.11616733     0.11850
H258        H  0.29013160  0.40426327  0.12884054     0.11850
C259        C  0.17190976  0.43795476  0.42462460    -0.14280
C260        C  0.19486215  0.47554387  0.45546271     0.07870
C261        C  0.19044126  0.51268487  0.44652698    -0.14280
C262        C  0.16249991  0.51194679  0.40824550    -0.14280
C263        C  0.13803750  0.47387184  0.37880424     0.07870
C264        C  0.14319566  0.43695418  0.38671206    -0.14280
H265        H  0.17431508  0.40869845  0.43185072     0.11850
H266        H  0.20711040  0.54152043  0.47077613     0.11850
H267        H  0.15772240  0.54005058  0.40378990     0.11850
H268        H  0.12405787  0.40708782  0.36470843     0.11850
C269        C  0.15276745  0.43191711  0.05911613    -0.14280
C270        C  0.19332932  0.47035651  0.05042114     0.07870
C271        C  0.20710505  0.50673705  0.08293135    -0.14280
C272        C  0.17913650  0.50554013  0.12181574    -0.14280
C273        C  0.13696670  0.46803489  0.12823938     0.07870
C274        C  0.12490984  0.43065807  0.09771321    -0.14280
H275        H  0.14168427  0.40359721  0.03425351     0.11850
H276        H  0.23817625  0.53685059  0.07625894     0.11850
H277        H  0.18930983  0.53491201  0.14454729     0.11850
H278        H  0.09288872  0.40111278  0.10188083     0.11850
C279        C  0.53550909  0.67454799  0.39301312    -0.14280
C280        C  0.49631832  0.63591851  0.37955143     0.07870
C281        C  0.45645301  0.62638006  0.40309128    -0.14280
C282        C  0.45622173  0.65368245  0.44168597    -0.14280
C283        C  0.49560452  0.69145750  0.45623149     0.07870
C284        C  0.53505019  0.70246917  0.43077836    -0.14280
H285        H  0.56660176  0.68229490  0.37545002     0.11850
H286        H  0.42602901  0.59633448  0.39389882     0.11850
H287        H  0.42569184  0.64443670  0.46164792     0.11850
H288        H  0.56577416  0.73129700  0.44210958     0.11850
C289        C  0.53797461  0.69502546  0.06338696    -0.14280
C290        C  0.49879918  0.69473976  0.05141011     0.07870
C291        C  0.46108146  0.67009846  0.08146686    -0.14280
C292        C  0.46186794  0.64357993  0.12107288    -0.14280
C293        C  0.50027313  0.64113427  0.13048258     0.07870
C294        C  0.53878115  0.66860036  0.10256165    -0.14280
H295        H  0.56739280  0.71400663  0.04061797     0.11850
H296        H  0.43050721  0.66944805  0.07241122     0.11850
H297        H  0.43172030  0.62283462  0.14191541     0.11850
H298        H  0.56904227  0.66790597  0.10916003     0.11850
C299        C  0.46513478  0.76485501  0.42195126    -0.14280
C300        C  0.50209300  0.77844028  0.45355267     0.07870
C301        C  0.54072519  0.81855732  0.44367156    -0.14280
C302        C  0.54160644  0.84626918  0.40501259    -0.14280
C303        C  0.50370240  0.83449422  0.37552384     0.07870
C304        C  0.46597650  0.79265699  0.38295561    -0.14280
H305        H  0.43488806  0.73411860  0.42947399     0.11850
H306        H  0.56956493  0.82948840  0.46765429     0.11850
H307        H  0.57134189  0.87800869  0.39998359     0.11850
H308        H  0.43622173  0.78270109  0.36099956     0.11850
C309        C  0.53797885  0.80576526  0.07466136    -0.14280
C310        C  0.49850920  0.77805000  0.04869409     0.07870
C311        C  0.45947637  0.77722059  0.06280524    -0.14280
C312        C  0.46007532  0.80482616  0.10141314    -0.14280
C313        C  0.49985363  0.83430029  0.12570063     0.07870
C314        C  0.53876456  0.83419134  0.11265004    -0.14280
H315        H  0.56845639  0.80703341  0.06363997     0.11850
H316        H  0.42897775  0.75658717  0.04239070     0.11850
H317        H  0.43007056  0.80529054  0.11001669     0.11850
H318        H  0.56984396  0.85699218  0.13070555     0.11850
C319        C  0.77212900  0.30018540  0.07827312    -0.14280
C320        C  0.78258155  0.27256288  0.05011560     0.07870
C321        C  0.81976243  0.26946811  0.06343578    -0.14280
C322        C  0.84811798  0.29622654  0.10171638    -0.14280
C323        C  0.83942604  0.32613306  0.12788086     0.07870
C324        C  0.80006147  0.32635633  0.11748180    -0.14280
H325        H  0.74367183  0.30317421  0.06818126     0.11850
H326        H  0.82799506  0.24782353  0.04271298     0.11850
H327        H  0.87786883  0.29483283  0.10940163     0.11850
H328        H  0.79235327  0.34875281  0.13734220     0.11850
C329        C  0.81553452  0.26673317  0.43688067    -0.14280
C330        C  0.78136812  0.27319119  0.45467767     0.07870
C331        C  0.77433421  0.30544090  0.43184151    -0.14280
C332        C  0.80283491  0.33265987  0.39358642    -0.14280
C333        C  0.83923965  0.32851371  0.37863741     0.07870
C334        C  0.84450572  0.29442971  0.39952921    -0.14280
H335        H  0.82117408  0.24169239  0.45370216     0.11850
H336        H  0.74833796  0.31108673  0.44553774     0.11850
H337        H  0.79817830  0.35879207  0.37819001     0.11850
H338        H  0.87201915  0.29025515  0.38827587     0.11850
C339        C  0.65312088  0.18786522  0.44573529    -0.14280
C340        C  0.69445140  0.19208067  0.45600508     0.07870
C341        C  0.70875910  0.16777874  0.42721686    -0.14280
C342        C  0.68110133  0.13802219  0.39020663    -0.14280
C343        C  0.63925376  0.13294541  0.38098468     0.07870
C344        C  0.62591605  0.15886181  0.40803960    -0.14280
H345        H  0.64112782  0.20550587  0.46851209     0.11850
H346        H  0.74007327  0.16979823  0.43562298     0.11850
H347        H  0.69171201  0.11798184  0.36991870     0.11850
H348        H  0.59333321  0.15457801  0.40220180     0.11850
C349        C  0.69947573  0.15168499  0.06078071    -0.14280
C350        C  0.69815869  0.19036734  0.05074882     0.07870
C351        C  0.67254379  0.20157411  0.08160131    -0.14280
C352        C  0.64657833  0.17296719  0.12047835    -0.14280
C353        C  0.64519450  0.13239558  0.12795435     0.07870
C354        C  0.67322676  0.12291387  0.09898071    -0.14280
H355        H  0.71904411  0.14259962  0.03712689     0.11850
H356        H  0.67075849  0.23108354  0.07379435     0.11850
H357        H  0.62551346  0.18123363  0.14237866     0.11850
H358        H  0.67330380  0.09218431  0.10418084     0.11850
C359        C  0.52267427  0.29932643  0.42872289    -0.14280
C360        C  0.48299772  0.26855906  0.45214921     0.07870
C361        C  0.44284187  0.26283912  0.43362229    -0.14280
C362        C  0.44260329  0.29039945  0.39531904    -0.14280
C363        C  0.48248834  0.32327801  0.37398649     0.07870
C364        C  0.52232582  0.32586167  0.38904098    -0.14280
H365        H  0.55397685  0.30422496  0.44275659     0.11850
H366        H  0.41185852  0.23880000  0.45079198     0.11850
H367        H  0.41137352  0.28729208  0.38387292     0.11850
H368        H  0.55340132  0.35037690  0.37257446     0.11850
C369        C  0.52126004  0.29707645  0.07502385    -0.14280
C370        C  0.48248522  0.26994822  0.04759801     0.07870
C371        C  0.44317241  0.26893753  0.06082711    -0.14280
C372        C  0.44313525  0.29691989  0.09849038    -0.14280
C373        C  0.48239848  0.32621386  0.12405881     0.07870
C374        C  0.52117174  0.32486483  0.11338100    -0.14280
H375        H  0.55194284  0.29835754  0.06498653     0.11850
H376        H  0.41281468  0.24783405  0.04051332     0.11850
H377        H  0.41262674  0.29678942  0.10630116     0.11850
H378        H  0.55192270  0.34716662  0.13237744     0.11850
C379        C  0.51687596  0.19650869  0.42406038    -0.14280
C380        C  0.47955866  0.18335267  0.45484458     0.07870
C381        C  0.44084451  0.14337931  0.44464241    -0.14280
C382        C  0.44027306  0.11536883  0.40667584    -0.14280
C383        C  0.47835375  0.12698782  0.37774460     0.07870
C384        C  0.51610538  0.16871371  0.38524304    -0.14280
H385        H  0.54718380  0.22712518  0.43174105     0.11850
H386        H  0.41150355  0.13289896  0.46745308     0.11850
H387        H  0.41044038  0.08376248  0.40131452     0.11850
H388        H  0.54580508  0.17869194  0.36325882     0.11850
C389        C  0.52152789  0.19208867  0.07046948    -0.14280
C390        C  0.48174057  0.18595570  0.05019389     0.07870
C391        C  0.44146561  0.15321085  0.07065595    -0.14280
C392        C  0.44093341  0.12445174  0.10799850    -0.14280
C393        C  0.48074006  0.12894049  0.12635002     0.07870
C394        C  0.52103815  0.16413460  0.10882684    -0.14280
H395        H  0.55285766  0.21690555  0.05463732     0.11850
H396        H  0.41044697  0.14824282  0.05560264     0.11850
H397        H  0.40947927  0.09773261  0.12121489     0.11850
H398        H  0.55210332  0.16803934  0.12215607     0.11850
C399        C  0.65706518  0.44754502  0.44842848    -0.14280
C400        C  0.69934580  0.48431396  0.45530617     0.07870
C401        C  0.71409391  0.52077323  0.42254413    -0.14280
C402        C  0.68591334  0.52114381  0.38486831    -0.14280
C403        C  0.64314208  0.48476403  0.37918064     0.07870
C404        C  0.62929038  0.44769644  0.41046475    -0.14280
H405        H  0.64480475  0.41958083  0.47407940     0.11850
H406        H  0.74624459  0.54984345  0.42814957     0.11850
H407        H  0.69681574  0.55028001  0.36141635     0.11850
H408        H  0.59591419  0.42012358  0.40772250     0.11850
C409        C  0.70168166  0.52878802  0.05940997    -0.14280
C410        C  0.70333549  0.49021377  0.05005004     0.07870
C411        C  0.67951818  0.45315310  0.08133872    -0.14280
C412        C  0.65214706  0.45393545  0.11975593    -0.14280
C413        C  0.64803053  0.49167213  0.12678675     0.07870
C414        C  0.67442398  0.52960379  0.09745271    -0.14280
H415        H  0.71973408  0.55756049  0.03534654     0.11850
H416        H  0.68005652  0.42292021  0.07403677     0.11850
H417        H  0.63213958  0.42417967  0.14161799     0.11850
H418        H  0.67241105  0.55934919  0.10218691     0.11850
C419        C  0.78049255  0.45162516  0.06966604    -0.14280
C420        C  0.78740560  0.49169780  0.04934085     0.07870
C421        C  0.82052292  0.53172349  0.06979729    -0.14280
C422        C  0.84866613  0.53165892  0.10753863    -0.14280
C423        C  0.84326806  0.49152730  0.12612810     0.07870
C424        C  0.80789417  0.45154503  0.10831767    -0.14280
H425        H  0.75531643  0.42046985  0.05382545     0.11850
H426        H  0.82603181  0.56293789  0.05475095     0.11850
H427        H  0.87561962  0.56290113  0.12093022     0.11850
H428        H  0.80335678  0.42028821  0.12177533     0.11850
C429        C  0.82813668  0.53243274  0.44319565    -0.14280
C430        C  0.78824478  0.49379433  0.45399196     0.07870
C431        C  0.77488630  0.45623298  0.42354668    -0.14280
C432        C  0.80269625  0.45654499  0.38495416    -0.14280
C433        C  0.84441740  0.49424764  0.37697615     0.07870
C434        C  0.85598623  0.53267142  0.40521038    -0.14280
H435        H  0.83876301  0.56196342  0.46571850     0.11850
H436        H  0.74423878  0.42603910  0.43156291     0.11850
H437        H  0.79278928  0.42652751  0.36363740     0.11850
H438        H  0.88753938  0.56247913  0.39947771     0.11850
C439        C  0.76462591  0.49128054  0.00174072    -0.00370
C440        C  0.72400570  0.48721586  0.50231165    -0.00370
C441        C  0.48231652  0.20793044  0.50182518    -0.00370
C442        C  0.48389211  0.24741276  0.50060781    -0.00370
C443        C  0.75840150  0.25170434  0.00258332    -0.00370
C444        C  0.71815729  0.21464815  0.50311037    -0.00370
C445        C  0.49881893  0.75502698  0.50173729    -0.00370
C446        C  0.49644549  0.71519188  0.50307461    -0.00370
C447        C  0.21720981  0.47399680  0.00258202    -0.00370
C448        C  0.25610032  0.47432929  0.50202591    -0.00370
C449        C  0.22130443  0.71170035  0.00096728    -0.00370
C450        C  0.25989915  0.75050842  0.50187495    -0.00370
O451        O  0.91430363  0.37217154  0.85577258    -0.76230
O452        O  0.86288108  0.38095605  0.81163939    -0.55130
C453        C  0.87422821  0.36240667  0.84610694     0.77500
O454        O  0.06791124  0.59425843  0.85103774    -0.60830
O455        O  0.11896749  0.58421697  0.80814965    -0.53860
C456        C  0.10792773  0.60391226  0.84142296     0.69520
O457        O  0.91875144  0.52072411  0.85410077    -0.75390
O458        O  0.86505071  0.46225360  0.80998928    -0.55950
C459        C  0.87801885  0.49243671  0.84435550     0.75520
O460        O  0.06340653  0.44193949  0.85450423    -0.60530
O461        O  0.11572562  0.50216386  0.81094119    -0.53650
C462        C  0.10363328  0.47183891  0.84498640     0.72110
Zr463      Zr  0.98935667  0.42400173  0.82713932     2.54710
O464        O  0.99008066  0.42354500  0.91962792    -0.81100
O465        O  0.98708504  0.35330104  0.82160461    -0.94510
Zr466      Zr  0.99261660  0.53983851  0.82601517     2.64680
O467        O  0.99298097  0.54091354  0.91857901    -0.99470
O468        O  0.99421984  0.61025697  0.82103918    -0.81530
O469        O  0.94857893  0.46162672  0.82772053    -0.84890
O470        O  0.03327088  0.50225246  0.82753092    -2.19600
O471        O  0.06264637  0.44095478  0.65167223    -0.68280
O472        O  0.11617557  0.50035571  0.69464256    -0.52840
C473        C  0.10333540  0.46959275  0.66102443     0.70490
O474        O  0.91789395  0.52021016  0.64872326    -0.61180
O475        O  0.86510450  0.46099192  0.69294314    -0.53160
C476        C  0.87747956  0.49115277  0.65860961     0.72300
O477        O  0.06633651  0.59228981  0.64992376    -0.72580
O478        O  0.11802466  0.58308473  0.69274164    -0.51260
C479        C  0.10646368  0.60213979  0.65908243     0.73680
O480        O  0.91417939  0.37092085  0.65039302    -0.67910
O481        O  0.86265605  0.37922414  0.69461362    -0.55110
C482        C  0.87407358  0.36057968  0.66033972     0.72060
Zr483      Zr  0.98880261  0.42338776  0.67802952     2.77540
O484        O  0.98820835  0.42151140  0.58547064    -0.98660
O485        O  0.98583088  0.35240758  0.68420817    -0.79480
Zr486      Zr  0.99166186  0.53888262  0.67693694     2.70430
O487        O  0.99227748  0.54027220  0.58444832    -0.80730
O488        O  0.99236917  0.60877248  0.68300250    -0.99810
Zr489      Zr  0.90506971  0.44053593  0.75228341     2.21500
Zr490      Zr  0.07598763  0.52254796  0.75140173     2.11130
O491        O  0.03254899  0.50145715  0.67580540    -2.48500
O492        O  0.94775680  0.46069137  0.67643182    -0.80520
O493        O  0.03299405  0.44373756  0.75235012    -0.72710
O494        O  0.94835289  0.51935558  0.75172402    -2.33670
O495        O  0.94521468  0.40171639  0.75273107    -2.29880
O496        O  0.03605354  0.56148711  0.75115093    -0.74470
H497        H  0.05203203  0.51149097  0.85723810     0.77520
H498        H  0.92974203  0.53252248  0.75156256     0.78610
H499        H  0.05103656  0.51018905  0.64590775     0.80840
H500        H  0.92538474  0.37011175  0.75289090     0.78440
H501        H  0.96814740  0.60416249  0.80022088     0.41480
H502        H  0.01850692  0.62776384  0.70427256     0.40450
H503        H  0.98192591  0.50928056  0.57444659     0.40130
H504        H  0.01327079  0.45050077  0.57501426     0.38060
H505        H  0.00877955  0.35725717  0.70958321     0.41190
H506        H  0.95850618  0.33312126  0.80498855     0.35980
H507        H  0.98097202  0.44517444  0.92949264     0.42090
H508        H  0.01762659  0.53614153  0.92852245     0.38510
H509        H  0.99762596  0.39990892  0.57662965     0.43430
H510        H  0.98319624  0.34273558  0.85717828     0.42150
H511        H  0.00332515  0.57210630  0.92761564     0.42290
H512        H  0.00064438  0.62169970  0.64851044     0.42640
O513        O  0.45424158  0.37234980  0.64772023    -0.76230
O514        O  0.51357678  0.37860806  0.69140319    -0.55130
C515        C  0.48340825  0.36100506  0.65701174     0.77500
O516        O  0.52815553  0.59461830  0.65331810    -0.60830
O517        O  0.46814059  0.58702237  0.69643054    -0.53860
C518        C  0.49897210  0.60582001  0.66295596     0.69520
O519        O  0.60113840  0.51912332  0.64995267    -0.75390
O520        O  0.59499435  0.45984767  0.69353536    -0.55950
C521        C  0.61283287  0.49025653  0.65945264     0.75520
O522        O  0.37770029  0.44428541  0.65111368    -0.60530
O523        O  0.38700638  0.50528292  0.69386348    -0.53650
C524        C  0.36786192  0.47452588  0.66043806     0.72110
Zr525      Zr  0.43315644  0.42527371  0.67699647     2.54710
O526        O  0.43195952  0.42597208  0.58451731    -0.81100
O527        O  0.36381041  0.35532073  0.68166464    -0.94510
Zr528      Zr  0.54721720  0.53916599  0.67812661     2.64680
O529        O  0.54742260  0.53980617  0.58555047    -0.99470
O530        O  0.61688998  0.60883905  0.68224120    -0.81530
O531        O  0.51145978  0.46095198  0.67584955    -0.84890
O532        O  0.46901537  0.50349445  0.67663474    -2.19600
O533        O  0.37829017  0.44276387  0.85258432    -0.68280
O534        O  0.38517940  0.50282955  0.81006465    -0.52840
C535        C  0.36683271  0.47188857  0.84350728     0.70490
O536        O  0.60076196  0.51707671  0.85579726    -0.61180
O537        O  0.59254098  0.45728103  0.81108991    -0.53160
C538        C  0.61065314  0.48698058  0.84579928     0.72300
O539        O  0.52800239  0.59309160  0.85489099    -0.72580
O540        O  0.46662642  0.58384840  0.81286165    -0.51260
C541        C  0.49746062  0.60270961  0.84624473     0.73680
O542        O  0.45356401  0.36924871  0.85235819    -0.67910
O543        O  0.51325560  0.37701867  0.80818322    -0.55110
C544        C  0.48290987  0.35835053  0.84215033     0.72060
Zr545      Zr  0.43354148  0.42385992  0.82602540     2.77540
O546        O  0.43345316  0.42239396  0.91858440    -0.98660
O547        O  0.36434890  0.35387974  0.82057696    -0.79480
Zr548      Zr  0.54750382  0.53827934  0.82708972     2.70070
O549        O  0.54851315  0.53984591  0.91957126    -0.80730
O550        O  0.61776157  0.60700005  0.81999417    -0.99810
Zr551      Zr  0.53315253  0.43879489  0.75097449     2.21500
Zr552      Zr  0.44738503  0.52432524  0.75287905     2.11130
O553        O  0.46919652  0.50209067  0.82817201    -2.48500
O554        O  0.51179558  0.45988205  0.82707132    -0.80520
O555        O  0.41028512  0.44544362  0.75209466    -0.72710
O556        O  0.57027562  0.51773542  0.75218656    -2.33670
O557        O  0.45424810  0.40166701  0.75091761    -2.29880
O558        O  0.52630646  0.56167612  0.75300954    -0.74470
H559        H  0.45977340  0.51311789  0.64700989     0.77520
H560        H  0.60197692  0.53024765  0.75229062     0.78610
H561        H  0.45979199  0.51099417  0.85820032     0.80840
H562        H  0.44171899  0.36996441  0.75053554     0.78440
H563        H  0.63584839  0.60296853  0.70518752     0.41480
H564        H  0.61097022  0.62666201  0.79951042     0.40450
H565        H  0.52821972  0.50879228  0.92969790     0.40130
H566        H  0.43786812  0.45156246  0.92901865     0.38060
H567        H  0.34702802  0.35886096  0.79425349     0.41190
H568        H  0.37141389  0.33468177  0.69862404     0.35980
H569        H  0.46329916  0.44510175  0.57466856     0.42090
H570        H  0.51830018  0.53590982  0.57578520     0.38510
H571        H  0.40245451  0.40110233  0.92793068     0.43430
H572        H  0.35741866  0.34486885  0.64604279     0.42150
H573        H  0.56893079  0.57076480  0.57625838     0.42290
H574        H  0.62346499  0.61978932  0.85461204     0.42640
O575        O  0.60030717  0.05744450  0.65008927    -0.76230
O576        O  0.59255943  0.10896258  0.69506018    -0.55130
C577        C  0.61089512  0.09758682  0.66040200     0.77500
O578        O  0.37820672  0.90457834  0.65134802    -0.60830
O579        O  0.38777926  0.85321441  0.69442979    -0.53860
C580        C  0.36827398  0.86447080  0.66100039     0.69520
O581        O  0.45124047  0.05392570  0.64891096    -0.75390
O582        O  0.51081090  0.10653420  0.69285341    -0.55950
C583        C  0.48058293  0.09434461  0.65868996     0.75520
O584        O  0.53099123  0.90881496  0.65029877    -0.60530
O585        O  0.47018714  0.85621346  0.69262694    -0.53650
C586        C  0.50098301  0.86850707  0.65919656     0.72110
Zr587      Zr  0.54831528  0.98254557  0.67777129     2.54710
O588        O  0.54939761  0.98234902  0.58528294    -0.81100
O589        O  0.61895056  0.98469836  0.68353418    -0.94510
Zr590      Zr  0.43268192  0.97973021  0.67649830     2.64680
O591        O  0.43403568  0.97990235  0.58393872    -0.99470
O592        O  0.36212227  0.97795362  0.67892642    -0.81530
O593        O  0.51087494  0.02352904  0.67611763    -0.84890
O594        O  0.47014470  0.93881864  0.67597242    -2.19600
O595        O  0.53048859  0.90889640  0.85254391    -0.68280
O596        O  0.47137164  0.85542320  0.80902189    -0.52840
C597        C  0.50201291  0.86820876  0.84286703     0.70490
O598        O  0.45193768  0.05276959  0.85504131    -0.61180
O599        O  0.50930128  0.10642639  0.80961896    -0.53160
C600        C  0.47982616  0.09346540  0.84479625     0.72300
O601        O  0.37859551  0.90440038  0.85216484    -0.72580
O602        O  0.38850578  0.85304640  0.80982034    -0.51260
C603        C  0.36905770  0.86437206  0.84311299     0.73680
O604        O  0.59891555  0.05798437  0.85704496    -0.67910
O605        O  0.58901502  0.10860912  0.81255896    -0.55110
C606        C  0.60748820  0.09769608  0.84749198     0.72060
Zr607      Zr  0.54819600  0.98304309  0.82688211     2.77540
O608        O  0.55022769  0.98214452  0.91941112    -0.98660
O609        O  0.61979787  0.98752119  0.81963979    -0.79480
Zr610      Zr  0.43208588  0.97919384  0.82569749     2.70070
O611        O  0.42800843  0.97729929  0.91807001    -0.80730
O612        O  0.36265844  0.97921155  0.81783325    -0.99810
Zr613      Zr  0.53089271  0.06633178  0.75191555     2.21500
Zr614      Zr  0.44932771  0.89567809  0.75184670     2.11130
O615        O  0.46996553  0.93882115  0.82767826    -2.48500
O616        O  0.51017756  0.02332689  0.82751993    -0.80520
O617        O  0.52815682  0.93884700  0.75245829    -0.72710
O618        O  0.45213443  0.02315019  0.75130058    -2.33670
O619        O  0.57018408  0.02668097  0.75225837    -2.29880
O620        O  0.41034633  0.93557800  0.75106173    -0.74470
H621        H  0.46123853  0.92018324  0.64619411     0.77520
H622        H  0.43896900  0.04176049  0.75136802     0.78610
H623        H  0.46096395  0.92017336  0.85747659     0.80840
H624        H  0.60175513  0.04666298  0.75257539     0.78440
H625        H  0.36646730  0.00107719  0.70374160     0.41480
H626        H  0.34340924  0.95252277  0.79749627     0.40450
H627        H  0.45767720  0.98359570  0.92925964     0.40130
H628        H  0.52099228  0.95734589  0.92962413     0.38060
H629        H  0.61450763  0.96303078  0.79646508     0.41190
H630        H  0.63880573  0.01268579  0.70142745     0.35980
H631        H  0.53032160  0.99457265  0.57521688     0.42090
H632        H  0.43855546  0.95499528  0.57458214     0.38510
H633        H  0.57133429  0.97194596  0.92772734     0.43430
H634        H  0.63012122  0.98983485  0.64817938     0.42150
H635        H  0.40319022  0.97007468  0.57372138     0.42290
H636        H  0.34978744  0.97208396  0.85240856     0.42640
C637        C  0.33731875  0.79207668  0.88931509    -0.14280
C638        C  0.33492946  0.82980626  0.87583390     0.07870
C639        C  0.30331450  0.83742227  0.89952459    -0.14280
C640        C  0.27669743  0.80963117  0.93823940    -0.14280
C641        C  0.28164918  0.77415197  0.95443771     0.07870
C642        C  0.31102903  0.76458720  0.92876948    -0.14280
H643        H  0.36153954  0.78555971  0.87184564     0.11850
H644        H  0.30044860  0.86598501  0.88954588     0.11850
H645        H  0.25356607  0.81697813  0.95698977     0.11850
H646        H  0.31513370  0.73722262  0.94095163     0.11850
C647        C  0.27566354  0.80927417  0.56574071    -0.14280
C648        C  0.28046815  0.77356727  0.55011077     0.07870
C649        C  0.30933671  0.76380050  0.57672714    -0.14280
C650        C  0.33523228  0.79124762  0.61646143    -0.14280
C651        C  0.33362997  0.82960229  0.62877935     0.07870
C652        C  0.30231731  0.83732602  0.60436405    -0.14280
H653        H  0.25288317  0.81679786  0.54635075     0.11850
H654        H  0.31336027  0.73627124  0.56513742     0.11850
H655        H  0.35847027  0.78405735  0.63524004     0.11850
H656        H  0.29979335  0.86619655  0.61360961     0.11850
C657        C  0.13635117  0.67090932  0.89636524    -0.14280
C658        C  0.14296520  0.63831881  0.87357590     0.07870
C659        C  0.18014216  0.63514634  0.88763820    -0.14280
C660        C  0.20735602  0.66081315  0.92761678    -0.14280
C661        C  0.19862276  0.69104531  0.95261303     0.07870
C662        C  0.16430649  0.69742221  0.93514191    -0.14280
H663        H  0.10837677  0.67455477  0.88572284     0.11850
H664        H  0.18644883  0.61085394  0.87008527     0.11850
H665        H  0.23387513  0.65565791  0.94060520     0.11850
H666        H  0.15768783  0.72129584  0.95330312     0.11850
C667        C  0.20733595  0.66142966  0.57512215    -0.14280
C668        C  0.19728843  0.68998048  0.54823508     0.07870
C669        C  0.16075480  0.69374595  0.56273457    -0.14280
C670        C  0.13266327  0.66696106  0.60114213    -0.14280
C671        C  0.14092197  0.63625963  0.62618602     0.07870
C672        C  0.17949041  0.63493203  0.61423987    -0.14280
H673        H  0.23539208  0.65808159  0.56413260     0.11850
H674        H  0.15286952  0.71607953  0.54289668     0.11850
H675        H  0.10344583  0.66902230  0.60986347     0.11850
H676        H  0.18652862  0.61141219  0.63272208     0.11850
C677        C  0.27827918  0.43301156  0.94395634    -0.14280
C678        C  0.27707857  0.47170297  0.95429345     0.07870
C679        C  0.30087410  0.50895150  0.92324456    -0.14280
C680        C  0.32787870  0.50824613  0.88425320    -0.14280
C681        C  0.33164241  0.47038500  0.87634909     0.07870
C682        C  0.30518000  0.43228571  0.90538800    -0.14280
H683        H  0.25993358  0.40389350  0.96738584     0.11850
H684        H  0.30046294  0.53918773  0.93102673     0.11850
H685        H  0.34783395  0.53810512  0.86254746     0.11850
H686        H  0.30684552  0.40241481  0.89997832     0.11850
C687        C  0.26918345  0.43546020  0.57389391    -0.14280
C688        C  0.27909380  0.47507035  0.54955041     0.07870
C689        C  0.31509059  0.51500157  0.56624902    -0.14280
C690        C  0.34208607  0.51515034  0.60555863    -0.14280
C691        C  0.33400942  0.47519619  0.62769147     0.07870
C692        C  0.29679576  0.43544874  0.61237902    -0.14280
H693        H  0.24157942  0.40438251  0.56116380     0.11850
H694        H  0.32338236  0.54574333  0.54728993     0.11850
H695        H  0.37101440  0.54605101  0.61616542     0.11850
H696        H  0.29013080  0.40427141  0.62884049     0.11850
C697        C  0.17188376  0.43792169  0.92465816    -0.14280
C698        C  0.19484921  0.47552154  0.95547702     0.07870
C699        C  0.19044102  0.51266695  0.94652098    -0.14280
C700        C  0.16249938  0.51192343  0.90823731    -0.14280
C701        C  0.13802487  0.47383942  0.87881417     0.07870
C702        C  0.14316951  0.43691619  0.88674319    -0.14280
H703        H  0.17428039  0.40866269  0.93190061     0.11850
H704        H  0.20712071  0.54151103  0.97075572     0.11850
H705        H  0.15773098  0.54003132  0.90376624     0.11850
H706        H  0.12402206  0.40704302  0.86475385     0.11850
C707        C  0.15276550  0.43191774  0.55908537    -0.14280
C708        C  0.19333151  0.47035668  0.55040588     0.07870
C709        C  0.20710948  0.50672574  0.58293473    -0.14280
C710        C  0.17913968  0.50551882  0.62182315    -0.14280
C711        C  0.13696622  0.46801535  0.62823222     0.07870
C712        C  0.12490647  0.43064888  0.59768635    -0.14280
H713        H  0.14168095  0.40360634  0.53420873     0.11850
H714        H  0.23818414  0.53683876  0.57627515     0.11850
H715        H  0.18931574  0.53488284  0.64457036     0.11850
H716        H  0.09288248  0.40110517  0.60184192     0.11850
C717        C  0.53551543  0.67455033  0.89302836    -0.14280
C718        C  0.49632323  0.63592507  0.87955966     0.07870
C719        C  0.45645666  0.62639084  0.90309302    -0.14280
C720        C  0.45622492  0.65369290  0.94168788    -0.14280
C721        C  0.49560874  0.69146365  0.95624019     0.07870
C722        C  0.53505629  0.70247131  0.93079380    -0.14280
H723        H  0.56660910  0.68229403  0.87547051     0.11850
H724        H  0.42603133  0.59634846  0.89389533     0.11850
H725        H  0.42569345  0.64445004  0.96164466     0.11850
H726        H  0.56578102  0.73129570  0.94213028     0.11850
C727        C  0.53797319  0.69501424  0.56337037    -0.14280
C728        C  0.49880027  0.69473654  0.55140153     0.07870
C729        C  0.46108634  0.67010388  0.58146703    -0.14280
C730        C  0.46187344  0.64358620  0.62107398    -0.14280
C731        C  0.50027558  0.64113317  0.63047685     0.07870
C732        C  0.53878051  0.66859058  0.60254645    -0.14280
H733        H  0.56738854  0.71398845  0.54059473     0.11850
H734        H  0.43051380  0.66945919  0.57241767     0.11850
H735        H  0.43172797  0.62284746  0.64192332     0.11850
H736        H  0.56903945  0.66789060  0.60913891     0.11850
C737        C  0.46515227  0.76486388  0.92195482    -0.14280
C738        C  0.50210582  0.77845046  0.95356426     0.07870
C739        C  0.54073834  0.81856889  0.94368903    -0.14280
C740        C  0.54162384  0.84628078  0.90502766    -0.14280
C741        C  0.50372395  0.83450401  0.87553034     0.07870
C742        C  0.46599838  0.79266561  0.88295665    -0.14280
H743        H  0.43490546  0.73412616  0.92947248     0.11850
H744        H  0.56957510  0.82950059  0.96767690     0.11850
H745        H  0.57135897  0.87802128  0.90000297     0.11850
H746        H  0.43624669  0.78270832  0.86099391     0.11850
C747        C  0.53797578  0.80574507  0.57466015    -0.14280
C748        C  0.49850672  0.77804648  0.54868229     0.07870
C749        C  0.45948205  0.77723911  0.56278087    -0.14280
C750        C  0.46008843  0.80484812  0.60138847    -0.14280
C751        C  0.49986640  0.83430361  0.62568913     0.07870
C752        C  0.53876935  0.83417484  0.61264936    -0.14280
H753        H  0.56844771  0.80699763  0.56364676     0.11850
H754        H  0.42898478  0.75661987  0.54235739     0.11850
H755        H  0.43009099  0.80532993  0.60998252     0.11850
H756        H  0.56984865  0.85696233  0.63071449     0.11850
C757        C  0.77213690  0.30018635  0.57825756    -0.14280
C758        C  0.78258725  0.27255853  0.55010737     0.07870
C759        C  0.81976265  0.26945753  0.56343720    -0.14280
C760        C  0.84811585  0.29621516  0.60171988    -0.14280
C761        C  0.83942692  0.32612719  0.62787671     0.07870
C762        C  0.80006716  0.32635700  0.61746794    -0.14280
H763        H  0.74368307  0.30317880  0.56815894     0.11850
H764        H  0.82799278  0.24780811  0.54272093     0.11850
H765        H  0.87786290  0.29481642  0.60941280     0.11850
H766        H  0.79236156  0.34875808  0.63732198     0.11850
C767        C  0.81551768  0.26673084  0.93687858    -0.14280
C768        C  0.78136042  0.27319902  0.95468581     0.07870
C769        C  0.77433562  0.30545800  0.93185842    -0.14280
C770        C  0.80283572  0.33267457  0.89360095    -0.14280
C771        C  0.83923118  0.32851675  0.87864070     0.07870
C772        C  0.84448842  0.29442483  0.89952493    -0.14280
H773        H  0.82115091  0.24168378  0.95369385     0.11850
H774        H  0.74834686  0.31111205  0.94556264     0.11850
H775        H  0.79818665  0.35881366  0.87821149     0.11850
H776        H  0.87199505  0.29024186  0.88826371     0.11850
C777        C  0.65312571  0.18787397  0.94572826    -0.14280
C778        C  0.69445177  0.19208351  0.95601050     0.07870
C779        C  0.70876053  0.16777824  0.92723052    -0.14280
C780        C  0.68110770  0.13802405  0.89021583    -0.14280
C781        C  0.63926415  0.13295294  0.88098109     0.07870
C782        C  0.62592589  0.15887270  0.90802803    -0.14280
H783        H  0.64113184  0.20551734  0.96849879     0.11850
H784        H  0.74007125  0.16979348  0.93564632     0.11850
H785        H  0.69171856  0.11798070  0.86993480     0.11850
H786        H  0.59334555  0.15459235  0.90218133     0.11850
C787        C  0.69949261  0.15169119  0.56078085    -0.14280
C788        C  0.69816633  0.19036757  0.55074217     0.07870
C789        C  0.67254722  0.20157169  0.58159026    -0.14280
C790        C  0.64658470  0.17296616  0.62046916    -0.14280
C791        C  0.64520964  0.13239949  0.62795193     0.07870
C792        C  0.67324725  0.12292167  0.59898360    -0.14280
H793        H  0.71906503  0.14260879  0.53713004     0.11850
H794        H  0.67075642  0.23107743  0.57377816     0.11850
H795        H  0.62551454  0.18122871  0.64236474     0.11850
H796        H  0.67333050  0.09219575  0.60418941     0.11850
C797        C  0.52262620  0.29925081  0.92865328    -0.14280
C798        C  0.48296099  0.26853544  0.95214295     0.07870
C799        C  0.44280549  0.26285968  0.93367582    -0.14280
C800        C  0.44256357  0.29041718  0.89537194    -0.14280
C801        C  0.48244304  0.32325013  0.87397946     0.07870
C802        C  0.52227133  0.32578215  0.88897054    -0.14280
H803        H  0.55392930  0.30411637  0.94263980     0.11850
H804        H  0.41182864  0.23885747  0.95088948     0.11850
H805        H  0.41133837  0.28734535  0.88397378     0.11850
H806        H  0.55334060  0.35025665  0.87245397     0.11850
C807        C  0.52124284  0.29704368  0.57507465    -0.14280
C808        C  0.48248520  0.26995366  0.54760199     0.07870
C809        C  0.44317986  0.26897797  0.56078186    -0.14280
C810        C  0.44313564  0.29695482  0.59844684    -0.14280
C811        C  0.48238502  0.32621268  0.62406325     0.07870
C812        C  0.52114761  0.32482931  0.61343125    -0.14280
H813        H  0.55192055  0.29829905  0.56507434     0.11850
H814        H  0.41283561  0.24790682  0.54042799     0.11850
H815        H  0.41263431  0.29684978  0.60621994     0.11850
H816        H  0.55188839  0.34710246  0.63246467     0.11850
C817        C  0.51689000  0.19650764  0.92405809    -0.14280
C818        C  0.47957342  0.18335129  0.95484375     0.07870
C819        C  0.44086195  0.14337374  0.94464833    -0.14280
C820        C  0.44029112  0.11536267  0.90668286    -0.14280
C821        C  0.47836966  0.12698513  0.87774557     0.07870
C822        C  0.51611918  0.16871307  0.88524021    -0.14280
H823        H  0.54719769  0.22712437  0.93173705     0.11850
H824        H  0.41152305  0.13289099  0.96746394     0.11850
H825        H  0.41046042  0.08375384  0.90132618     0.11850
H826        H  0.54581723  0.17869380  0.86325185     0.11850
C827        C  0.52151456  0.19209877  0.57048435    -0.14280
C828        C  0.48172490  0.18594989  0.55019631     0.07870
C829        C  0.44145190  0.15318770  0.57064360    -0.14280
C830        C  0.44092608  0.12442887  0.60798263    -0.14280
C831        C  0.48073646  0.12893395  0.62634580     0.07870
C832        C  0.52103060  0.16414430  0.60883802    -0.14280
H833        H  0.55284342  0.21692896  0.55466386     0.11850
H834        H  0.41043106  0.14820786  0.55558349     0.11850
H835        H  0.40947439  0.09769783  0.62118754     0.11850
H836        H  0.55209908  0.16806303  0.62217642     0.11850
C837        C  0.65718131  0.44750165  0.94824430    -0.14280
C838        C  0.69938868  0.48434400  0.95525964     0.07870
C839        C  0.71407315  0.52088171  0.92263571    -0.14280
C840        C  0.68588825  0.52125525  0.88496939    -0.14280
C841        C  0.64318158  0.48479857  0.87914455     0.07870
C842        C  0.62940743  0.44765321  0.91027800    -0.14280
H843        H  0.64497038  0.41947435  0.97379454     0.11850
H844        H  0.74616833  0.55000047  0.92835006     0.11850
H845        H  0.69673246  0.55044712  0.86163302     0.11850
H846        H  0.59608001  0.42001104  0.90742813     0.11850
C847        C  0.70169365  0.52879543  0.55945117    -0.14280
C848        C  0.70335042  0.49022217  0.55009616     0.07870
C849        C  0.67954292  0.45316663  0.58139532    -0.14280
C850        C  0.65217150  0.45394956  0.61981152    -0.14280
C851        C  0.64804660  0.49168235  0.62683258     0.07870
C852        C  0.67443738  0.52961259  0.59749492    -0.14280
H853        H  0.71973765  0.55756325  0.53537857     0.11850
H854        H  0.68008298  0.42293418  0.57409703     0.11850
H855        H  0.63216704  0.42419507  0.64167701     0.11850
H856        H  0.67241916  0.55935566  0.60222256     0.11850
C857        C  0.78049801  0.45163524  0.56967485    -0.14280
C858        C  0.78741677  0.49170767  0.54934216     0.07870
C859        C  0.82054871  0.53173355  0.56978192    -0.14280
C860        C  0.84869683  0.53166793  0.60751635    -0.14280
C861        C  0.84329013  0.49153554  0.62611541     0.07870
C862        C  0.80790497  0.45155452  0.60831935    -0.14280
H863        H  0.75531124  0.42047950  0.55384652     0.11850
H864        H  0.82606270  0.56294803  0.55473001     0.11850
H865        H  0.87565892  0.56290941  0.62089683     0.11850
H866        H  0.80336032  0.42029685  0.62178444     0.11850
C867        C  0.82816383  0.53243072  0.94321345    -0.14280
C868        C  0.78826114  0.49379729  0.95398807     0.07870
C869        C  0.77489529  0.45624597  0.92352241    -0.14280
C870        C  0.80270693  0.45656106  0.88493058    -0.14280
C871        C  0.84443686  0.49425685  0.87697227     0.07870
C872        C  0.85601483  0.53267250  0.90522796    -0.14280
H873        H  0.83879620  0.56195424  0.96575174     0.11850
H874        H  0.74423890  0.42605601  0.93152118     0.11850
H875        H  0.79279267  0.42654980  0.86359771     0.11850
H876        H  0.88757524  0.56247531  0.89951146     0.11850
loop_ 
_geom_bond_atom_site_label_1 
_geom_bond_atom_site_label_2 
_geom_bond_distance 
_geom_bond_site_symmetry_2 
_ccdc_geom_bond_type 
C1          C430   1.483       .  S
C1          C858   1.479       .  S
C1          C440   1.353       .  D
C2          C410   1.480       .  S
C2          C838   1.481   1_554  S
C2          C439   1.353       .  D
C3          C390   1.481       .  S
C3          C818   1.481   1_554  S
C3            C4   1.353       .  D
C4          C370   1.481       .  S
C4          C798   1.481   1_554  S
C5          C330   1.481       .  S
C5          C758   1.481       .  S
C5          C444   1.353       .  D
C6          C350   1.478       .  S
C6          C778   1.480   1_554  S
C6          C443   1.353       .  D
C7          C310   1.478       .  S
C7          C738   1.481   1_554  S
C7            C8   1.352       .  D
C8          C290   1.480       .  S
C8          C721   1.478   1_554  S
C9          C260   1.479       .  S
C9          C708   1.481       .  S
C9          C448   1.353       .  D
C10         C250   1.479       .  S
C10         C678   1.481   1_554  S
C10         C447   1.353       .  D
C11         C223   1.481       .  S
C11         C668   1.479       .  S
C11         C450   1.352       .  D
C12         C210   1.482       .  S
C12         C641   1.480   1_554  S
C12         C449   1.352       .  D
O13         Zr25   2.444       .  S
O13          C15   1.289       .  A
O14         Zr51   2.423       .  S
O14          C15   1.286       .  A
C15         C333   1.477       .  S
O16         Zr28   2.441   1_455  S
O16          C18   1.289       .  A
O17         Zr52   2.427       .  S
O17          C18   1.287       .  A
C18         C220   1.478       .  S
O19         Zr28   2.435       .  S
O19          C21   1.288       .  A
O20         Zr51   2.430       .  S
O20          C21   1.287       .  A
C21         C433   1.481       .  S
O22         Zr25   2.445   1_455  S
O22          C24   1.288       .  A
O23         Zr52   2.423       .  S
O23          C24   1.286       .  A
C24         C263   1.468       .  S
Zr25         O26   2.434       .  S
Zr25         O27   2.435       .  S
Zr25         O31   2.373       .  S
Zr25         O32   2.372   1_655  S
Zr25         O55   2.372   1_655  S
Zr25         O57   2.369       .  S
O26          H69   0.990       .  S
O27          H68   0.990       .  S
O27          H72   0.990       .  S
Zr28         O29   2.436       .  S
Zr28         O30   2.435       .  S
Zr28         O32   2.368   1_655  S
Zr28         O31   2.372       .  S
Zr28         O56   2.369       .  S
Zr28         O58   2.369   1_655  S
O29          H70   0.990   1_655  S
O29          H73   0.990   1_655  S
O30          H63   0.990       .  S
O31         Zr51   2.381       .  S
O32         Zr52   2.385       .  S
O32          H59   0.966       .  S
O33         Zr45   2.435   1_455  S
O33          C35   1.288       .  A
O34         Zr52   2.429       .  S
O34          C35   1.287       .  A
C35         C273   1.482       .  S
O36         Zr48   2.435       .  S
O36          C38   1.287       .  A
O37         Zr51   2.427       .  S
O37          C38   1.287       .  A
C38         C423   1.473       .  S
O39         Zr48   2.433   1_455  S
O39          C41   1.288       .  A
O40         Zr52   2.429       .  S
O40          C41   1.287       .  A
C41         C233   1.478       .  S
O42         Zr45   2.429       .  S
O42          C44   1.287       .  A
O43         Zr51   2.431       .  S
O43          C44   1.288       .  A
C44         C323   1.478       .  S
Zr45         O46   2.436       .  S
Zr45         O47   2.434       .  S
Zr45         O53   2.367   1_655  S
Zr45         O54   2.371       .  S
Zr45         O57   2.368       .  S
Zr45         O55   2.369   1_655  S
O46          H66   0.990   1_655  S
O46          H71   0.990       .  S
O47          H67   0.990   1_655  S
Zr48         O49   2.434       .  S
Zr48         O50   2.434       .  S
Zr48         O54   2.371       .  S
Zr48         O53   2.370   1_655  S
Zr48         O58   2.369   1_655  S
Zr48         O56   2.366       .  S
O49          H65   0.990       .  S
O50          H64   0.990   1_655  S
O50          H74   0.990   1_655  S
Zr51         O54   2.378       .  S
Zr51         O56   2.387       .  S
Zr51         O57   2.389       .  S
Zr52         O53   2.383       .  S
Zr52         O55   2.387       .  S
Zr52         O58   2.386       .  S
O53          H61   0.966       .  S
O56          H60   0.966       .  S
O57          H62   0.966       .  S
O75         Zr87   2.433       .  S
O75          C77   1.288       .  A
O76        Zr113   2.431       .  S
O76          C77   1.288       .  A
C77         C373   1.479       .  S
O78         Zr90   2.431       .  S
O78          C80   1.287       .  A
O79        Zr114   2.436       .  S
O79          C80   1.289       .  A
C80         C293   1.482       .  S
O81         Zr90   2.431       .  S
O81          C83   1.287       .  A
O82        Zr113   2.431       .  S
O82          C83   1.288       .  A
C83         C413   1.481       .  S
O84         Zr87   2.437       .  S
O84          C86   1.288       .  A
O85        Zr114   2.428       .  S
O85          C86   1.287       .  A
C86         C253   1.472       .  S
Zr87         O88   2.434       .  S
Zr87         O89   2.435       .  S
Zr87         O93   2.372       .  S
Zr87         O94   2.368       .  S
Zr87        O117   2.368       .  S
Zr87        O119   2.368       .  S
O88         H131   0.990       .  S
O89         H130   0.990       .  S
O89         H134   0.990       .  S
Zr90         O91   2.436       .  S
Zr90         O92   2.435       .  S
Zr90         O94   2.369       .  S
Zr90         O93   2.369       .  S
Zr90        O118   2.367       .  S
Zr90        O120   2.370       .  S
O91         H132   0.990       .  S
O91         H135   0.990       .  S
O92         H125   0.990       .  S
O93        Zr113   2.379       .  S
O94        Zr114   2.384       .  S
O94         H121   0.966       .  S
O95        Zr107   2.435       .  S
O95          C97   1.288       .  A
O96        Zr114   2.434       .  S
O96          C97   1.288       .  A
C97         C243   1.483       .  S
O98        Zr110   2.440       .  S
O98         C100   1.288       .  A
O99        Zr113   2.424       .  S
O99         C100   1.286       .  A
C100        C403   1.467       .  S
O101       Zr110   2.444       .  S
O101        C103   1.289       .  A
O102       Zr114   2.423       .  S
O102        C103   1.286       .  A
C103        C280   1.471       .  S
O104       Zr107   2.437       .  S
O104        C106   1.288       .  A
O105       Zr113   2.429       .  S
O105        C106   1.287       .  A
C106        C363   1.477       .  S
Zr107       O108   2.436       .  S
Zr107       O109   2.434       .  S
Zr107       O115   2.370       .  S
Zr107       O116   2.369       .  S
Zr107       O119   2.366       .  S
Zr107       O117   2.371       .  S
O108        H128   0.990       .  S
O108        H133   0.990       .  S
O109        H129   0.990       .  S
Zr110       O111   2.434       .  S
Zr110       O112   2.434       .  S
Zr110       O116   2.374       .  S
Zr110       O115   2.371       .  S
Zr110       O120   2.370       .  S
Zr110       O118   2.369       .  S
O111        H127   0.990       .  S
O112        H126   0.990       .  S
O112        H136   0.990       .  S
Zr113       O116   2.380       .  S
Zr113       O118   2.389       .  S
Zr113       O119   2.388       .  S
Zr114       O115   2.386       .  S
Zr114       O117   2.387       .  S
Zr114       O120   2.388       .  S
O115        H123   0.966       .  S
O118        H122   0.966       .  S
O119        H124   0.966       .  S
O137       Zr149   2.433   1_545  S
O137        C139   1.288       .  A
O138       Zr175   2.427       .  S
O138        C139   1.287       .  A
C139        C353   1.479       .  S
O140       Zr152   2.440       .  S
O140        C142   1.289       .  A
O141       Zr176   2.431       .  S
O141        C142   1.288       .  A
C142        C213   1.480       .  S
O143       Zr152   2.445   1_545  S
O143        C145   1.289       .  A
O144       Zr175   2.420       .  S
O144        C145   1.286       .  A
C145        C393   1.475       .  S
O146       Zr149   2.442       .  S
O146        C148   1.288       .  A
O147       Zr176   2.423       .  S
O147        C148   1.286       .  A
C148        C313   1.470       .  S
Zr149       O150   2.434       .  S
Zr149       O151   2.435       .  S
Zr149       O155   2.374   1_565  S
Zr149       O156   2.370       .  S
Zr149       O179   2.369       .  S
Zr149       O181   2.372   1_565  S
O150        H193   0.990       .  S
O151        H192   0.990   1_565  S
O151        H196   0.990       .  S
Zr152       O153   2.436       .  S
Zr152       O154   2.435       .  S
Zr152       O156   2.372       .  S
Zr152       O155   2.371   1_565  S
Zr152       O180   2.368   1_565  S
Zr152       O182   2.373       .  S
O153        H194   0.990       .  S
O153        H197   0.990       .  S
O154        H187   0.990   1_565  S
O155       Zr175   2.379       .  S
O156       Zr176   2.385       .  S
O156        H183   0.966       .  S
O157       Zr169   2.437       .  S
O157        C159   1.288       .  A
O158       Zr176   2.431       .  S
O158        C159   1.288       .  A
C159        C303   1.482       .  S
O160       Zr172   2.429   1_545  S
O160        C162   1.287       .  A
O161       Zr175   2.429       .  S
O161        C162   1.287       .  A
C162        C383   1.479       .  S
O163       Zr172   2.432       .  S
O163        C165   1.287       .  A
O164       Zr176   2.428       .  S
O164        C165   1.287       .  A
C165        C200   1.477       .  S
O166       Zr169   2.446   1_545  S
O166        C168   1.289       .  A
O167       Zr175   2.418       .  S
O167        C168   1.285       .  A
C168        C343   1.469       .  S
Zr169       O170   2.437       .  S
Zr169       O171   2.434       .  S
Zr169       O177   2.373       .  S
Zr169       O178   2.369   1_565  S
Zr169       O181   2.365   1_565  S
Zr169       O179   2.373       .  S
O170        H190   0.990       .  S
O170        H195   0.990       .  S
O171        H191   0.990       .  S
Zr172       O173   2.434       .  S
Zr172       O174   2.434       .  S
Zr172       O178   2.369   1_565  S
Zr172       O177   2.368       .  S
Zr172       O182   2.366       .  S
Zr172       O180   2.367   1_565  S
O173        H189   0.990       .  S
O174        H188   0.990       .  S
O174        H198   0.990       .  S
Zr175       O178   2.377       .  S
Zr175       O180   2.386       .  S
Zr175       O181   2.388       .  S
Zr176       O177   2.385       .  S
Zr176       O179   2.388       .  S
Zr176       O182   2.386       .  S
O177        H185   0.966       .  S
O180        H184   0.966       .  S
O181        H186   0.966       .  S
C199        C200   1.407       .  A
C199        C204   1.400       .  A
C199        H205   1.083       .  S
C200        C201   1.405       .  A
C201        C202   1.393       .  A
C201        H206   1.083       .  S
C202        C203   1.400       .  A
C202        H207   1.082       .  S
C203        C450   1.480       .  S
C203        C204   1.402       .  A
C204        H208   1.083       .  S
C209        C210   1.401       .  A
C209        C214   1.395       .  A
C209        H215   1.082       .  S
C210        C211   1.402       .  A
C211        C212   1.401       .  A
C211        H216   1.083       .  S
C212        C213   1.407       .  A
C212        H217   1.081       .  S
C213        C214   1.405       .  A
C214        H218   1.083       .  S
C219        C220   1.405       .  A
C219        C224   1.395       .  A
C219        H225   1.083       .  S
C220        C221   1.407       .  A
C221        C222   1.400       .  A
C221        H226   1.082       .  S
C222        C223   1.402       .  A
C222        H227   1.083       .  S
C223        C224   1.401       .  A
C224        H228   1.082       .  S
C229        C230   1.402       .  A
C229        C234   1.401       .  A
C229        H235   1.083       .  S
C230        C449   1.480       .  S
C230        C231   1.400       .  A
C231        C232   1.393       .  A
C231        H236   1.082       .  S
C232        C233   1.405       .  A
C232        H237   1.083       .  S
C233        C234   1.407       .  A
C234        H238   1.083       .  S
C239        C240   1.400       .  A
C239        C244   1.393       .  A
C239        H245   1.083       .  S
C240        C448   1.481       .  S
C240        C241   1.403       .  A
C241        C242   1.403       .  A
C241        H246   1.083       .  S
C242        C243   1.408       .  A
C242        H247   1.083       .  S
C243        C244   1.406       .  A
C244        H248   1.083       .  S
C249        C250   1.401       .  A
C249        C254   1.398       .  A
C249        H255   1.083       .  S
C250        C251   1.402       .  A
C251        C252   1.397       .  A
C251        H256   1.083       .  S
C252        C253   1.404       .  A
C252        H257   1.083       .  S
C253        C254   1.405       .  A
C254        H258   1.083       .  S
C259        C260   1.404       .  A
C259        C264   1.402       .  A
C259        H265   1.083       .  S
C260        C261   1.401       .  A
C261        C262   1.393       .  A
C261        H266   1.084       .  S
C262        C263   1.401       .  A
C262        H267   1.081       .  S
C263        C264   1.404       .  A
C264        H268   1.083       .  S
C269        C270   1.400       .  A
C269        C274   1.393       .  A
C269        H275   1.083       .  S
C270        C447   1.481       .  S
C270        C271   1.403       .  A
C271        C272   1.402       .  A
C271        H276   1.083       .  S
C272        C273   1.408       .  A
C272        H277   1.083       .  S
C273        C274   1.406       .  A
C274        H278   1.083       .  S
C279        C280   1.404       .  A
C279        C284   1.399       .  A
C279        H285   1.083       .  S
C280        C281   1.404       .  A
C281        C282   1.397       .  A
C281        H286   1.083       .  S
C282        C283   1.401       .  A
C282        H287   1.083       .  S
C283        C446   1.478       .  S
C283        C284   1.402       .  A
C284        H288   1.083       .  S
C289        C290   1.399       .  A
C289        C294   1.393       .  A
C289        H295   1.083       .  S
C290        C291   1.403       .  A
C291        C292   1.403       .  A
C291        H296   1.083       .  S
C292        C293   1.408       .  A
C292        H297   1.083       .  S
C293        C294   1.407       .  A
C294        H298   1.083       .  S
C299        C300   1.403       .  A
C299        C304   1.402       .  A
C299        H305   1.083       .  S
C300        C445   1.481       .  S
C300        C301   1.400       .  A
C301        C302   1.393       .  A
C301        H306   1.083       .  S
C302        C303   1.406       .  A
C302        H307   1.083       .  S
C303        C304   1.408       .  A
C304        H308   1.083       .  S
C309        C310   1.403       .  A
C309        C314   1.400       .  A
C309        H315   1.083       .  S
C310        C311   1.400       .  A
C311        C312   1.394       .  A
C311        H316   1.084       .  S
C312        C313   1.402       .  A
C312        H317   1.081       .  S
C313        C314   1.404       .  A
C314        H318   1.083       .  S
C319        C320   1.403       .  A
C319        C324   1.400       .  A
C319        H325   1.083       .  S
C320        C443   1.481       .  S
C320        C321   1.400       .  A
C321        C322   1.394       .  A
C321        H326   1.082       .  S
C322        C323   1.406       .  A
C322        H327   1.083       .  S
C323        C324   1.406       .  A
C324        H328   1.081       .  S
C329        C330   1.402       .  A
C329        C334   1.395       .  A
C329        H335   1.082       .  S
C330        C331   1.402       .  A
C331        C332   1.401       .  A
C331        H336   1.083       .  S
C332        C333   1.407       .  A
C332        H337   1.082       .  S
C333        C334   1.404       .  A
C334        H338   1.083       .  S
C339        C340   1.402       .  A
C339        C344   1.396       .  A
C339        H345   1.083       .  S
C340        C444   1.480       .  S
C340        C341   1.404       .  A
C341        C342   1.399       .  A
C341        H346   1.083       .  S
C342        C343   1.402       .  A
C342        H347   1.083       .  S
C343        C344   1.403       .  A
C344        H348   1.082       .  S
C349        C350   1.400       .  A
C349        C354   1.393       .  A
C349        H355   1.083       .  S
C350        C351   1.402       .  A
C351        C352   1.400       .  A
C351        H356   1.083       .  S
C352        C353   1.407       .  A
C352        H357   1.082       .  S
C353        C354   1.406       .  A
C354        H358   1.083       .  S
C359        C360   1.402       .  A
C359        C364   1.400       .  A
C359        H365   1.083       .  S
C360        C442   1.481       .  S
C360        C361   1.401       .  A
C361        C362   1.396       .  A
C361        H366   1.082       .  S
C362        C363   1.405       .  A
C362        H367   1.083       .  S
C363        C364   1.405       .  A
C364        H368   1.081       .  S
C369        C370   1.403       .  A
C369        C374   1.402       .  A
C369        H375   1.083       .  S
C370        C371   1.400       .  A
C371        C372   1.393       .  A
C371        H376   1.082       .  S
C372        C373   1.406       .  A
C372        H377   1.083       .  S
C373        C374   1.407       .  A
C374        H378   1.083       .  S
C379        C380   1.403       .  A
C379        C384   1.401       .  A
C379        H385   1.083       .  S
C380        C441   1.481       .  S
C380        C381   1.400       .  A
C381        C382   1.392       .  A
C381        H386   1.082       .  S
C382        C383   1.405       .  A
C382        H387   1.083       .  S
C383        C384   1.407       .  A
C384        H388   1.082       .  S
C389        C390   1.401       .  A
C389        C394   1.398       .  A
C389        H395   1.083       .  S
C390        C391   1.403       .  A
C391        C392   1.398       .  A
C391        H396   1.083       .  S
C392        C393   1.404       .  A
C392        H397   1.083       .  S
C393        C394   1.405       .  A
C394        H398   1.082       .  S
C399        C400   1.402       .  A
C399        C404   1.394       .  A
C399        H405   1.083       .  S
C400        C440   1.481       .  S
C400        C401   1.405       .  A
C401        C402   1.401       .  A
C401        H406   1.083       .  S
C402        C403   1.403       .  A
C402        H407   1.083       .  S
C403        C404   1.400       .  A
C404        H408   1.081       .  S
C409        C410   1.399       .  A
C409        C414   1.392       .  A
C409        H415   1.084       .  S
C410        C411   1.403       .  A
C411        C412   1.402       .  A
C411        H416   1.083       .  S
C412        C413   1.408       .  A
C412        H417   1.083       .  S
C413        C414   1.407       .  A
C414        H418   1.083       .  S
C419        C420   1.401       .  A
C419        C424   1.397       .  A
C419        H425   1.083       .  S
C420        C439   1.479       .  S
C420        C421   1.402       .  A
C421        C422   1.397       .  A
C421        H426   1.083       .  S
C422        C423   1.405       .  A
C422        H427   1.083       .  S
C423        C424   1.404       .  A
C424        H428   1.081       .  S
C429        C430   1.401       .  A
C429        C434   1.393       .  A
C429        H435   1.082       .  S
C430        C431   1.403       .  A
C431        C432   1.402       .  A
C431        H436   1.083       .  S
C432        C433   1.408       .  A
C432        H437   1.082       .  S
C433        C434   1.405       .  A
C434        H438   1.083       .  S
C439        C868   1.483   1_554  S
C440        C848   1.480       .  S
C441        C828   1.481       .  S
C441        C442   1.353       .  D
C442        C808   1.481       .  S
C443        C768   1.481   1_554  S
C444        C788   1.478       .  S
C445        C748   1.478       .  S
C445        C446   1.352       .  D
C446        C728   1.480       .  S
C447        C698   1.479   1_554  S
C448        C688   1.479       .  S
C449        C661   1.482   1_554  S
C450        C648   1.482       .  S
O451       Zr463   2.444       .  S
O451        C453   1.289       .  A
O452       Zr489   2.423       .  S
O452        C453   1.286       .  A
C453        C771   1.477       .  S
O454       Zr466   2.441   1_455  S
O454        C456   1.289       .  A
O455       Zr490   2.427       .  S
O455        C456   1.287       .  A
C456        C658   1.478       .  S
O457       Zr466   2.435       .  S
O457        C459   1.288       .  A
O458       Zr489   2.430       .  S
O458        C459   1.287       .  A
C459        C871   1.481       .  S
O460       Zr463   2.445   1_455  S
O460        C462   1.288       .  A
O461       Zr490   2.423       .  S
O461        C462   1.286       .  A
C462        C701   1.468       .  S
Zr463       O464   2.434       .  S
Zr463       O465   2.435       .  S
Zr463       O469   2.373       .  S
Zr463       O470   2.372   1_655  S
Zr463       O493   2.372   1_655  S
Zr463       O495   2.369       .  S
O464        H507   0.990       .  S
O465        H506   0.990       .  S
O465        H510   0.990       .  S
Zr466       O467   2.436       .  S
Zr466       O468   2.435       .  S
Zr466       O470   2.368   1_655  S
Zr466       O469   2.372       .  S
Zr466       O494   2.369       .  S
Zr466       O496   2.369   1_655  S
O467        H508   0.990   1_655  S
O467        H511   0.990   1_655  S
O468        H501   0.990       .  S
O469       Zr489   2.381       .  S
O470       Zr490   2.385       .  S
O470        H497   0.966       .  S
O471       Zr483   2.435   1_455  S
O471        C473   1.288       .  A
O472       Zr490   2.429       .  S
O472        C473   1.287       .  A
C473        C711   1.482       .  S
O474       Zr486   2.435       .  S
O474        C476   1.287       .  A
O475       Zr489   2.427       .  S
O475        C476   1.287       .  A
C476        C861   1.474       .  S
O477       Zr486   2.433   1_455  S
O477        C479   1.288       .  A
O478       Zr490   2.429       .  S
O478        C479   1.287       .  A
C479        C671   1.478       .  S
O480       Zr483   2.429       .  S
O480        C482   1.287       .  A
O481       Zr489   2.431       .  S
O481        C482   1.288       .  A
C482        C761   1.478       .  S
Zr483       O484   2.436       .  S
Zr483       O485   2.434       .  S
Zr483       O491   2.367   1_655  S
Zr483       O492   2.371       .  S
Zr483       O495   2.368       .  S
Zr483       O493   2.369   1_655  S
O484        H504   0.990   1_655  S
O484        H509   0.990       .  S
O485        H505   0.990   1_655  S
Zr486       O487   2.434       .  S
Zr486       O488   2.434       .  S
Zr486       O492   2.371       .  S
Zr486       O491   2.370   1_655  S
Zr486       O496   2.369   1_655  S
Zr486       O494   2.366       .  S
O487        H503   0.990       .  S
O488        H502   0.990   1_655  S
O488        H512   0.990   1_655  S
Zr489       O492   2.378       .  S
Zr489       O494   2.388       .  S
Zr489       O495   2.389       .  S
Zr490       O491   2.383       .  S
Zr490       O493   2.387       .  S
Zr490       O496   2.386       .  S
O491        H499   0.966       .  S
O494        H498   0.966       .  S
O495        H500   0.966       .  S
O513       Zr525   2.433       .  S
O513        C515   1.288       .  A
O514       Zr551   2.431       .  S
O514        C515   1.288       .  A
C515        C811   1.479       .  S
O516       Zr528   2.431       .  S
O516        C518   1.287       .  A
O517       Zr552   2.436       .  S
O517        C518   1.289       .  A
C518        C731   1.482       .  S
O519       Zr528   2.431       .  S
O519        C521   1.287       .  A
O520       Zr551   2.431       .  S
O520        C521   1.288       .  A
C521        C851   1.481       .  S
O522       Zr525   2.437       .  S
O522        C524   1.288       .  A
O523       Zr552   2.428       .  S
O523        C524   1.287       .  A
C524        C691   1.472       .  S
Zr525       O526   2.434       .  S
Zr525       O527   2.435       .  S
Zr525       O531   2.372       .  S
Zr525       O532   2.368       .  S
Zr525       O555   2.368       .  S
Zr525       O557   2.368       .  S
O526        H569   0.990       .  S
O527        H568   0.990       .  S
O527        H572   0.990       .  S
Zr528       O529   2.436       .  S
Zr528       O530   2.435       .  S
Zr528       O532   2.369       .  S
Zr528       O531   2.369       .  S
Zr528       O556   2.367       .  S
Zr528       O558   2.370       .  S
O529        H570   0.990       .  S
O529        H573   0.990       .  S
O530        H563   0.990       .  S
O531       Zr551   2.379       .  S
O532       Zr552   2.384       .  S
O532        H559   0.966       .  S
O533       Zr545   2.435       .  S
O533        C535   1.288       .  A
O534       Zr552   2.434       .  S
O534        C535   1.288       .  A
C535        C681   1.483       .  S
O536       Zr548   2.440       .  S
O536        C538   1.288       .  A
O537       Zr551   2.424       .  S
O537        C538   1.286       .  A
C538        C841   1.467       .  S
O539       Zr548   2.444       .  S
O539        C541   1.289       .  A
O540       Zr552   2.423       .  S
O540        C541   1.286       .  A
C541        C718   1.471       .  S
O542       Zr545   2.437       .  S
O542        C544   1.288       .  A
O543       Zr551   2.429       .  S
O543        C544   1.287       .  A
C544        C801   1.477       .  S
Zr545       O546   2.436       .  S
Zr545       O547   2.434       .  S
Zr545       O553   2.370       .  S
Zr545       O554   2.369       .  S
Zr545       O557   2.366       .  S
Zr545       O555   2.371       .  S
O546        H566   0.990       .  S
O546        H571   0.990       .  S
O547        H567   0.990       .  S
Zr548       O549   2.434       .  S
Zr548       O550   2.434       .  S
Zr548       O554   2.374       .  S
Zr548       O553   2.371       .  S
Zr548       O558   2.370       .  S
Zr548       O556   2.369       .  S
O549        H565   0.990       .  S
O550        H564   0.990       .  S
O550        H574   0.990       .  S
Zr551       O554   2.380       .  S
Zr551       O556   2.389       .  S
Zr551       O557   2.388       .  S
Zr552       O553   2.386       .  S
Zr552       O555   2.387       .  S
Zr552       O558   2.388       .  S
O553        H561   0.966       .  S
O556        H560   0.966       .  S
O557        H562   0.966       .  S
O575       Zr587   2.433   1_545  S
O575        C577   1.288       .  A
O576       Zr613   2.427       .  S
O576        C577   1.287       .  A
C577        C791   1.479       .  S
O578       Zr590   2.440       .  S
O578        C580   1.289       .  A
O579       Zr614   2.431       .  S
O579        C580   1.288       .  A
C580        C651   1.480       .  S
O581       Zr590   2.445   1_545  S
O581        C583   1.289       .  A
O582       Zr613   2.420       .  S
O582        C583   1.286       .  A
C583        C831   1.475       .  S
O584       Zr587   2.442       .  S
O584        C586   1.288       .  A
O585       Zr614   2.423       .  S
O585        C586   1.286       .  A
C586        C751   1.470       .  S
Zr587       O588   2.434       .  S
Zr587       O589   2.435       .  S
Zr587       O593   2.374   1_565  S
Zr587       O594   2.370       .  S
Zr587       O617   2.369       .  S
Zr587       O619   2.372   1_565  S
O588        H631   0.990       .  S
O589        H630   0.990   1_565  S
O589        H634   0.990       .  S
Zr590       O591   2.436       .  S
Zr590       O592   2.435       .  S
Zr590       O594   2.372       .  S
Zr590       O593   2.371   1_565  S
Zr590       O618   2.368   1_565  S
Zr590       O620   2.373       .  S
O591        H632   0.990       .  S
O591        H635   0.990       .  S
O592        H625   0.990   1_565  S
O593       Zr613   2.379       .  S
O594       Zr614   2.385       .  S
O594        H621   0.966       .  S
O595       Zr607   2.437       .  S
O595        C597   1.288       .  A
O596       Zr614   2.431       .  S
O596        C597   1.288       .  A
C597        C741   1.482       .  S
O598       Zr610   2.429   1_545  S
O598        C600   1.287       .  A
O599       Zr613   2.429       .  S
O599        C600   1.287       .  A
C600        C821   1.479       .  S
O601       Zr610   2.432       .  S
O601        C603   1.287       .  A
O602       Zr614   2.428       .  S
O602        C603   1.287       .  A
C603        C638   1.477       .  S
O604       Zr607   2.446   1_545  S
O604        C606   1.289       .  A
O605       Zr613   2.418       .  S
O605        C606   1.285       .  A
C606        C781   1.469       .  S
Zr607       O608   2.437       .  S
Zr607       O609   2.434       .  S
Zr607       O615   2.373       .  S
Zr607       O616   2.369   1_565  S
Zr607       O619   2.365   1_565  S
Zr607       O617   2.373       .  S
O608        H628   0.990       .  S
O608        H633   0.990       .  S
O609        H629   0.990       .  S
Zr610       O611   2.434       .  S
Zr610       O612   2.434       .  S
Zr610       O616   2.369   1_565  S
Zr610       O615   2.368       .  S
Zr610       O620   2.366       .  S
Zr610       O618   2.367   1_565  S
O611        H627   0.990       .  S
O612        H626   0.990       .  S
O612        H636   0.990       .  S
Zr613       O616   2.377       .  S
Zr613       O618   2.386       .  S
Zr613       O619   2.388       .  S
Zr614       O615   2.385       .  S
Zr614       O617   2.388       .  S
Zr614       O620   2.386       .  S
O615        H623   0.966       .  S
O618        H622   0.966       .  S
O619        H624   0.966       .  S
C637        C638   1.407       .  A
C637        C642   1.400       .  A
C637        H643   1.083       .  S
C638        C639   1.405       .  A
C639        C640   1.393       .  A
C639        H644   1.083       .  S
C640        C641   1.400       .  A
C640        H645   1.082       .  S
C641        C642   1.402       .  A
C642        H646   1.083       .  S
C647        C648   1.401       .  A
C647        C652   1.395       .  A
C647        H653   1.082       .  S
C648        C649   1.402       .  A
C649        C650   1.401       .  A
C649        H654   1.083       .  S
C650        C651   1.407       .  A
C650        H655   1.081       .  S
C651        C652   1.405       .  A
C652        H656   1.083       .  S
C657        C658   1.405       .  A
C657        C662   1.395       .  A
C657        H663   1.083       .  S
C658        C659   1.407       .  A
C659        C660   1.400       .  A
C659        H664   1.082       .  S
C660        C661   1.402       .  A
C660        H665   1.083       .  S
C661        C662   1.401       .  A
C662        H666   1.082       .  S
C667        C668   1.402       .  A
C667        C672   1.401       .  A
C667        H673   1.083       .  S
C668        C669   1.400       .  A
C669        C670   1.393       .  A
C669        H674   1.082       .  S
C670        C671   1.405       .  A
C670        H675   1.083       .  S
C671        C672   1.407       .  A
C672        H676   1.083       .  S
C677        C678   1.400       .  A
C677        C682   1.393       .  A
C677        H683   1.083       .  S
C678        C679   1.403       .  A
C679        C680   1.403       .  A
C679        H684   1.083       .  S
C680        C681   1.408       .  A
C680        H685   1.083       .  S
C681        C682   1.406       .  A
C682        H686   1.083       .  S
C687        C688   1.401       .  A
C687        C692   1.398       .  A
C687        H693   1.083       .  S
C688        C689   1.402       .  A
C689        C690   1.397       .  A
C689        H694   1.083       .  S
C690        C691   1.404       .  A
C690        H695   1.083       .  S
C691        C692   1.405       .  A
C692        H696   1.083       .  S
C697        C698   1.404       .  A
C697        C702   1.402       .  A
C697        H703   1.083       .  S
C698        C699   1.401       .  A
C699        C700   1.393       .  A
C699        H704   1.084       .  S
C700        C701   1.401       .  A
C700        H705   1.081       .  S
C701        C702   1.404       .  A
C702        H706   1.083       .  S
C707        C708   1.400       .  A
C707        C712   1.393       .  A
C707        H713   1.083       .  S
C708        C709   1.403       .  A
C709        C710   1.402       .  A
C709        H714   1.083       .  S
C710        C711   1.408       .  A
C710        H715   1.083       .  S
C711        C712   1.406       .  A
C712        H716   1.083       .  S
C717        C718   1.404       .  A
C717        C722   1.399       .  A
C717        H723   1.083       .  S
C718        C719   1.404       .  A
C719        C720   1.397       .  A
C719        H724   1.083       .  S
C720        C721   1.401       .  A
C720        H725   1.083       .  S
C721        C722   1.402       .  A
C722        H726   1.083       .  S
C727        C728   1.399       .  A
C727        C732   1.393       .  A
C727        H733   1.083       .  S
C728        C729   1.403       .  A
C729        C730   1.403       .  A
C729        H734   1.083       .  S
C730        C731   1.408       .  A
C730        H735   1.083       .  S
C731        C732   1.407       .  A
C732        H736   1.083       .  S
C737        C738   1.403       .  A
C737        C742   1.402       .  A
C737        H743   1.083       .  S
C738        C739   1.400       .  A
C739        C740   1.393       .  A
C739        H744   1.083       .  S
C740        C741   1.406       .  A
C740        H745   1.083       .  S
C741        C742   1.408       .  A
C742        H746   1.083       .  S
C747        C748   1.403       .  A
C747        C752   1.400       .  A
C747        H753   1.083       .  S
C748        C749   1.400       .  A
C749        C750   1.394       .  A
C749        H754   1.084       .  S
C750        C751   1.402       .  A
C750        H755   1.081       .  S
C751        C752   1.404       .  A
C752        H756   1.083       .  S
C757        C758   1.403       .  A
C757        C762   1.400       .  A
C757        H763   1.083       .  S
C758        C759   1.400       .  A
C759        C760   1.394       .  A
C759        H764   1.082       .  S
C760        C761   1.406       .  A
C760        H765   1.083       .  S
C761        C762   1.406       .  A
C762        H766   1.081       .  S
C767        C768   1.402       .  A
C767        C772   1.395       .  A
C767        H773   1.082       .  S
C768        C769   1.402       .  A
C769        C770   1.401       .  A
C769        H774   1.083       .  S
C770        C771   1.407       .  A
C770        H775   1.082       .  S
C771        C772   1.404       .  A
C772        H776   1.083       .  S
C777        C778   1.402       .  A
C777        C782   1.396       .  A
C777        H783   1.083       .  S
C778        C779   1.404       .  A
C779        C780   1.399       .  A
C779        H784   1.083       .  S
C780        C781   1.402       .  A
C780        H785   1.083       .  S
C781        C782   1.403       .  A
C782        H786   1.082       .  S
C787        C788   1.400       .  A
C787        C792   1.393       .  A
C787        H793   1.083       .  S
C788        C789   1.402       .  A
C789        C790   1.400       .  A
C789        H794   1.083       .  S
C790        C791   1.407       .  A
C790        H795   1.082       .  S
C791        C792   1.406       .  A
C792        H796   1.083       .  S
C797        C798   1.402       .  A
C797        C802   1.400       .  A
C797        H803   1.083       .  S
C798        C799   1.401       .  A
C799        C800   1.396       .  A
C799        H804   1.082       .  S
C800        C801   1.405       .  A
C800        H805   1.083       .  S
C801        C802   1.405       .  A
C802        H806   1.081       .  S
C807        C808   1.403       .  A
C807        C812   1.402       .  A
C807        H813   1.083       .  S
C808        C809   1.400       .  A
C809        C810   1.393       .  A
C809        H814   1.082       .  S
C810        C811   1.406       .  A
C810        H815   1.083       .  S
C811        C812   1.407       .  A
C812        H816   1.083       .  S
C817        C818   1.403       .  A
C817        C822   1.401       .  A
C817        H823   1.083       .  S
C818        C819   1.400       .  A
C819        C820   1.392       .  A
C819        H824   1.082       .  S
C820        C821   1.405       .  A
C820        H825   1.083       .  S
C821        C822   1.407       .  A
C822        H826   1.082       .  S
C827        C828   1.401       .  A
C827        C832   1.398       .  A
C827        H833   1.083       .  S
C828        C829   1.403       .  A
C829        C830   1.398       .  A
C829        H834   1.083       .  S
C830        C831   1.404       .  A
C830        H835   1.083       .  S
C831        C832   1.405       .  A
C832        H836   1.082       .  S
C837        C838   1.402       .  A
C837        C842   1.394       .  A
C837        H843   1.083       .  S
C838        C839   1.405       .  A
C839        C840   1.401       .  A
C839        H844   1.083       .  S
C840        C841   1.403       .  A
C840        H845   1.083       .  S
C841        C842   1.400       .  A
C842        H846   1.081       .  S
C847        C848   1.399       .  A
C847        C852   1.392       .  A
C847        H853   1.084       .  S
C848        C849   1.403       .  A
C849        C850   1.402       .  A
C849        H854   1.083       .  S
C850        C851   1.408       .  A
C850        H855   1.083       .  S
C851        C852   1.407       .  A
C852        H856   1.083       .  S
C857        C858   1.401       .  A
C857        C862   1.397       .  A
C857        H863   1.083       .  S
C858        C859   1.402       .  A
C859        C860   1.397       .  A
C859        H864   1.083       .  S
C860        C861   1.405       .  A
C860        H865   1.083       .  S
C861        C862   1.404       .  A
C862        H866   1.081       .  S
C867        C868   1.401       .  A
C867        C872   1.393       .  A
C867        H873   1.082       .  S
C868        C869   1.403       .  A
C869        C870   1.402       .  A
C869        H874   1.083       .  S
C870        C871   1.408       .  A
C870        H875   1.082       .  S
C871        C872   1.405       .  A
C872        H876   1.083       .  S
