geometry optimzed in LAMMPS
_audit_creation_date              2020-11-30 
_audit_creation_method            'lammps2cif' 
_symmetry_space_group_name_H-M    'P1' 
_symmetry_Int_Tables_number       1 
_symmetry_cell_setting            triclinic 
loop_ 
_symmetry_equiv_pos_as_xyz 
  x,y,z 
_cell_length_a                    23.34299945 
_cell_length_b                    23.950731116150138 
_cell_length_c                    23.56158836024918 
_cell_angle_alpha                 89.75240833009762 
_cell_angle_beta                  85.62355150542456 
_cell_angle_gamma                 87.6885305016066 
loop_ 
_atom_site_label 
_atom_site_type_symbol 
_atom_site_fract_x 
_atom_site_fract_y 
_atom_site_fract_z 
_atom_site_charge 
C1          C  0.10900877  0.87063537  0.99081859     0.79300
N2          N  0.13521633  0.85712825  0.03817660    -0.79100
C3          C  0.19071056  0.83959041  0.03659444     0.81700
N4          N  0.22103909  0.83127804  0.98499035    -0.79000
C5          C  0.19406320  0.84001412  0.93564733     0.81800
N6          N  0.13866566  0.86179420  0.93918036    -0.80700
C7          C  0.86820057  0.19628156  0.99475377     0.79300
N8          N  0.85182415  0.22651352  0.94976818    -0.79100
C9          C  0.80816915  0.26536984  0.95607629     0.81700
N10         N  0.77840325  0.27263028  0.00750245    -0.79000
C11         C  0.79452090  0.24220329  0.05289675     0.81800
N12         N  0.83943511  0.20481088  0.04632510    -0.80700
C13         C  0.88601980  0.03284405  0.33797477     0.79300
N14         N  0.86340460  0.98442330  0.32234232    -0.79100
C15         C  0.81897459  0.98558741  0.28765523     0.81700
N16         N  0.79546645  0.03620663  0.27078525    -0.79000
C17         C  0.81994023  0.08455084  0.28545681     0.81800
N18         N  0.86465856  0.08129646  0.31819792    -0.80700
C19         C  0.18154301  0.04129941  0.86884437     0.79300
N20         N  0.21600793  0.99581578  0.85803666    -0.79100
C21         C  0.25843387  0.99658835  0.81595231     0.81700
N22         N  0.26968475  0.04471832  0.78706649    -0.79000
C23         C  0.24233841  0.09278709  0.80677633     0.81800
N24         N  0.20044815  0.09064551  0.84945665    -0.80700
C25         C  0.01971837  0.70476712  0.13280068     0.79300
N26         N  0.05838467  0.73048545  0.16256257    -0.79100
C27         C  0.04027676  0.76645681  0.20531919     0.81700
N28         N  0.98311830  0.77722963  0.21839606    -0.79000
C29         C  0.94456056  0.75205088  0.18764792     0.81800
N30         N  0.96319832  0.71587993  0.14577138    -0.80700
C31         C  0.96811188  0.34733142  0.88921970     0.79300
N32         N  0.01758500  0.32573431  0.86399107    -0.79100
C33         C  0.02143837  0.30424289  0.81089857     0.81700
N34         N  0.97200775  0.30426700  0.78132172    -0.79000
C35         C  0.92001053  0.32374848  0.80858636     0.81800
N36         N  0.91979490  0.34579143  0.86161181    -0.80700
C37         C  0.82327034  0.89323460  0.01063507     0.79300
N38         N  0.80440618  0.86750144  0.05900000    -0.79100
C39         C  0.77658233  0.81931852  0.05898769     0.81700
N40         N  0.76790683  0.79536950  0.00649119    -0.79000
C41         C  0.78406048  0.82370253  0.95601276     0.81800
N42         N  0.81185786  0.87202315  0.95974516    -0.80700
C43         C  0.15171180  0.23362396  0.06609310     0.79300
N44         N  0.16281253  0.25675597  0.01359615    -0.79100
C45         C  0.13627269  0.23769099  0.96800568     0.81700
N46         N  0.10150566  0.19304692  0.97495533    -0.79000
C47         C  0.09019751  0.17030087  0.02778420     0.81800
N48         N  0.11517188  0.19161068  0.07240359    -0.80700
C49         C  0.88152298  0.06216199  0.74177108     0.79300
N50         N  0.84518851  0.10709960  0.74339308    -0.79100
C51         C  0.78797104  0.10249487  0.74052852     0.81700
N52         N  0.76627386  0.05100199  0.73504841    -0.79000
C53         C  0.80352414  0.00521249  0.73289279     0.81800
N54         N  0.86027980  0.01106438  0.73728312    -0.80700
C55         C  0.22072595  0.09616370  0.25272055     0.79300
N56         N  0.19252821  0.08846882  0.30496085    -0.79100
C57         C  0.18438000  0.03633948  0.32692298     0.81700
N58         N  0.20220616  0.99133182  0.29538208    -0.79000
C59         C  0.22814039  0.99445459  0.24277004     0.81800
N60         N  0.23871410  0.04800946  0.22061836    -0.80700
C61         C  0.04607082  0.73898009  0.82909600     0.79300
N62         N  0.08093622  0.77096538  0.79577774    -0.79100
C63         C  0.05968234  0.80750749  0.75796468     0.81700
N64         N  0.00124977  0.81355215  0.75429039    -0.79000
C65         C  0.96556918  0.78161861  0.78903497     0.81800
N66         N  0.98874085  0.74471008  0.82543422    -0.80700
C67         C  0.00473850  0.32899737  0.26526792     0.79300
N68         N  0.99481832  0.36838489  0.22500862    -0.79100
C69         C  0.94093689  0.38023390  0.20903105     0.81700
N70         N  0.89671180  0.35283574  0.23440140    -0.79000
C71         C  0.90434327  0.31348633  0.27438407     0.81800
N72         N  0.95911277  0.30005581  0.28955488    -0.80700
C73         C  0.28311267  0.56469099  0.84374879     0.79300
N74         N  0.26209594  0.60682176  0.81223691    -0.79100
C75         C  0.22976284  0.59727233  0.76826395     0.81700
N76         N  0.21778311  0.54422467  0.75495728    -0.79000
C77         C  0.23894008  0.50138948  0.78638755     0.81800
N78         N  0.27196935  0.51154292  0.82999062    -0.80700
C79         C  0.23634058  0.50005658  0.25627138     0.79300
N80         N  0.21951616  0.55081115  0.28364224    -0.79100
C81         C  0.23494929  0.60161529  0.25821827     0.81700
N82         N  0.26467352  0.59991802  0.20719263    -0.79000
C83         C  0.28159854  0.55206012  0.18016126     0.81800
N84         N  0.26845046  0.50241366  0.20539639    -0.80700
C85         C  0.29294005  0.35854275  0.45724831     0.79300
N86         N  0.27565910  0.33028494  0.50620833    -0.79100
C87         C  0.29859023  0.34257050  0.55634331     0.81700
N88         N  0.33652268  0.38335732  0.55707409    -0.79000
C89         C  0.35454872  0.41097126  0.50937539     0.81800
N90         N  0.33253732  0.39852459  0.45935525    -0.80700
O91         O  0.17526048  0.42914368  0.79105589    -0.81900
O92         O  0.19327382  0.17142854  0.77682657    -0.66600
O93         O  0.21729538  0.32124439  0.81047707    -1.13200
C94         C  0.28254760  0.31578732  0.61177359     1.05000
O95         O  0.28431091  0.16058624  0.74338576    -0.79800
O96         O  0.35405065  0.24405419  0.70110483    -0.67300
Ni97       Ni  0.15600924  0.36838118  0.84161935     1.34900
C98         C  0.36489255  0.28454139  0.73304850     0.83800
O99         O  0.18026976  0.23009884  0.87425315    -0.80300
O100        O  0.13417172  0.31154937  0.89921927    -0.90600
C101        C  0.24039761  0.14319928  0.77264598     0.83300
O102        O  0.10661054  0.34709445  0.78500964    -0.68800
O103        O  0.28125142  0.26246407  0.61482382    -0.88100
C104        C  0.08290029  0.30094839  0.78639747     0.84200
C105        C  0.15077279  0.26109141  0.91036003     1.05700
H106        H  0.19145120  0.26559154  0.69704040     0.37500
O107        O  0.22464742  0.26309914  0.71918870    -1.10700
O108        O  0.32449230  0.31621366  0.75606299    -0.67400
Ni109      Ni  0.24713375  0.33611845  0.73409551     1.26300
O110        O  0.11488633  0.25615595  0.78775259    -0.67600
O111        O  0.27554487  0.34800371  0.65556438    -0.79900
C112        C  0.22540650  0.44426548  0.77533470     0.83500
O113        O  0.26392396  0.41049100  0.75305706    -0.67100
Ni114      Ni  0.28196330  0.21354567  0.68069919     1.27400
Ni115      Ni  0.19991330  0.24606992  0.79568571     1.26100
H116        H  0.24784791  0.32130682  0.83593829     0.38100
C117        C  0.68124035  0.44004574  0.51821362     0.79300
N118        N  0.66791519  0.41052160  0.56572870    -0.79100
C119        C  0.66219988  0.35482354  0.56419775     0.81700
N120        N  0.66966593  0.32776699  0.51345423    -0.79000
C121        C  0.67908195  0.35794579  0.46465712     0.81800
N122        N  0.68600848  0.41365781  0.46742503    -0.80700
C123        C  0.47915903  0.36507218  0.66662313     0.79300
N124        N  0.42829472  0.35045872  0.69209651    -0.79100
C125        C  0.42440835  0.30693447  0.72851172     0.81700
N126        N  0.47483024  0.28070835  0.74490873    -0.79000
C127        C  0.52709496  0.30350163  0.72711970     0.81800
N128        N  0.52783719  0.34424219  0.68713574    -0.80700
O129        O  0.70269973  0.16369892  0.73624964    -0.81900
O130        O  0.65880545  0.41867163  0.75713483    -0.66600
O131        O  0.72986445  0.27735060  0.71749002    -1.13200
C132        C  0.78662400  0.28893591  0.90478453     1.05000
O133        O  0.74369660  0.44484073  0.77928059    -0.79800
O134        O  0.83500832  0.37421295  0.79028655    -0.67300
Ni135      Ni  0.68747213  0.22162310  0.68071461     1.34900
C136        C  0.86153605  0.32704461  0.78524818     0.83800
O137        O  0.66570415  0.35731968  0.66182364    -0.80300
O138        O  0.67510051  0.27297209  0.61931900    -0.90600
C139        C  0.69112762  0.45629662  0.77245233     0.83300
O140        O  0.60857869  0.23959127  0.71175540    -0.68800
O141        O  0.78775566  0.34183937  0.89666370    -0.88100
C142        C  0.58648064  0.28228189  0.73900921     0.84200
C143        C  0.66599580  0.32580816  0.61834391     1.05700
H144        H  0.68673092  0.33188562  0.83643523     0.37500
O145        O  0.71905742  0.33580377  0.80874384    -1.10700
O146        O  0.83416643  0.28291194  0.77717682    -0.67400
Ni147      Ni  0.75239278  0.26414884  0.79292042     1.26300
O148        O  0.61772383  0.31700431  0.76210710    -0.67600
O149        O  0.77079211  0.25376346  0.86918761    -0.79900
C150        C  0.75364842  0.15450427  0.75143104     0.83500
O151        O  0.78037138  0.19222751  0.77434788    -0.67100
Ni152      Ni  0.76534184  0.39169618  0.83639456     1.27400
Ni153      Ni  0.69141442  0.34712463  0.73572119     1.26100
H154        H  0.76390935  0.28443508  0.69296844     0.38100
C155        C  0.36292698  0.70803205  0.49823454     0.79300
N156        N  0.33593705  0.71887322  0.55037947    -0.79100
C157        C  0.28179813  0.74245670  0.55618907     0.81700
N158        N  0.25336249  0.75414540  0.50839655    -0.79000
C159        C  0.28154790  0.74565025  0.45570523     0.81800
N160        N  0.33568766  0.72304290  0.45167263    -0.80700
O161        O  0.12680492  0.81251446  0.67876311    -0.81900
O162        O  0.36218019  0.72569584  0.72610839    -0.66600
O163        O  0.20251050  0.76737660  0.74571610    -1.13200
C164        C  0.27219773  0.94248783  0.79194888     1.05000
O165        O  0.36468405  0.76164386  0.80941437    -0.79800
O166        O  0.28001808  0.82143957  0.87433482    -0.67300
Ni167      Ni  0.15063367  0.73786328  0.69529734     1.34900
C168        C  0.22623381  0.83407678  0.87818066     0.83800
O169        O  0.26697220  0.66989849  0.71626886    -0.80300
O170        O  0.17171306  0.66275166  0.71912285    -0.90600
C171        C  0.39103061  0.74895376  0.76195360     0.83300
O172        O  0.20205989  0.73442749  0.62597651    -0.68800
O173        O  0.31140494  0.91385789  0.81497791    -0.88100
C174        C  0.25413413  0.74802342  0.61498940     0.84200
C175        C  0.22167569  0.64423435  0.73016572     1.05700
H176        H  0.31011884  0.83987437  0.71687689     0.37500
O177        O  0.29241664  0.82230410  0.75018414    -1.10700
O178        O  0.19855138  0.84442570  0.83434480    -0.67400
Ni179      Ni  0.21491993  0.84698624  0.75206549     1.26300
O180        O  0.28618579  0.76157968  0.65371376    -0.67600
O181        O  0.23527378  0.92303971  0.76018007    -0.79900
C182        C  0.10294290  0.83765804  0.72225853     0.83500
O183        O  0.13416097  0.86914621  0.74907249    -0.67100
Ni184      Ni  0.33693863  0.83723347  0.81276923     1.27400
Ni185      Ni  0.28117430  0.74488187  0.73382436     1.26100
H186        H  0.19057642  0.75379162  0.78302699     0.38100
C187        C  0.59487165  0.55899259  0.84956304     0.79300
N188        N  0.61963348  0.60800647  0.83508066    -0.79100
C189        C  0.66763913  0.60813091  0.79837757     0.81700
N190        N  0.69163476  0.55907215  0.77716705    -0.79000
C191        C  0.66575638  0.51044739  0.79049968     0.81800
N192        N  0.61790546  0.51087037  0.82636337    -0.80700
C193        C  0.44741501  0.86851366  0.68246943     0.79300
N194        N  0.50358035  0.86443818  0.69134714    -0.79100
C195        C  0.52588178  0.82216203  0.72213195     0.81700
N196        N  0.49068984  0.78292253  0.74631341    -0.79000
C197        C  0.43340802  0.78732919  0.73771071     0.81800
N198        N  0.41296567  0.82911315  0.70495022    -0.80700
C199        C  0.79220150  0.72016217  0.50573359     0.79300
N200        N  0.77402973  0.74352811  0.55661228    -0.79100
C201        C  0.73379696  0.78571139  0.56127055     0.81700
N202        N  0.71099032  0.80557287  0.51170760    -0.79000
C203        C  0.72845106  0.78086280  0.45935016     0.81800
N204        N  0.76859321  0.73859661  0.45800992    -0.80700
O205        O  0.75649874  0.93235519  0.69270991    -0.81900
O206        O  0.69062387  0.68881461  0.74356165    -0.66600
O207        O  0.71029333  0.84506669  0.75871777    -1.13200
C208        C  0.90204921  0.78240664  0.78847880     1.05000
O209        O  0.72804955  0.67656366  0.82689660    -0.79800
O210        O  0.78578224  0.74991331  0.88622172    -0.67300
Ni211      Ni  0.68489214  0.89679934  0.70226544     1.34900
C212        C  0.78081956  0.80203964  0.89540783     0.83800
O213        O  0.61699527  0.77809315  0.73956550    -0.80300
O214        O  0.61082462  0.86737584  0.71026243    -0.90600
C215        C  0.69762677  0.65997464  0.78820574     0.83300
O216        O  0.70308789  0.85640503  0.63152288    -0.68800
O217        O  0.87846203  0.73755245  0.80644812    -0.88100
C218        C  0.71531187  0.80498651  0.62187567     0.84200
C219        C  0.58827136  0.82165579  0.72529294     1.05700
H220        H  0.79931168  0.74854803  0.72337696     0.37500
O221        O  0.77881533  0.76015103  0.75882188    -1.10700
O222        O  0.77983664  0.83745031  0.85373948    -0.67400
Ni223      Ni  0.79109896  0.83707781  0.76875219     1.26300
O224        O  0.71613927  0.76895160  0.66296778    -0.67600
O225        O  0.87351888  0.82588103  0.77298137    -0.79900
C226        C  0.78345294  0.94883051  0.73374385     0.83500
O227        O  0.79813135  0.91582688  0.77304451    -0.67100
Ni228      Ni  0.80221211  0.70916068  0.81577261     1.27400
Ni229      Ni  0.69865904  0.76789649  0.74717182     1.26100
H230        H  0.69048350  0.85583138  0.79476507     0.38100
C231        C  0.44210127  0.28150087  0.25820570     0.79300
N232        N  0.49442848  0.29218233  0.22874580    -0.79100
C233        C  0.54250800  0.29692400  0.25923497     0.81700
N234        N  0.53624954  0.29371332  0.31649295    -0.79000
C235        C  0.48548808  0.28493564  0.34465109     0.81800
N236        N  0.43888472  0.27858839  0.31561173    -0.80700
O237        O  0.71300708  0.27042217  0.11321142    -0.81900
O238        O  0.68635504  0.35425950  0.36533885    -0.66600
O239        O  0.74105545  0.31832521  0.21389985    -1.13200
C240        C  0.79401905  0.14184248  0.28175211     1.05000
O241        O  0.72902260  0.28608136  0.41415858    -0.79800
O242        O  0.82700903  0.28244440  0.33836674    -0.67300
Ni243      Ni  0.69287962  0.33822244  0.15391211     1.34900
C244        C  0.85315433  0.28025941  0.28878084     0.83800
O245        O  0.70596976  0.41751803  0.27353548    -0.80300
O246        O  0.67267046  0.40953777  0.18763927    -0.90600
C247        C  0.69780925  0.33034573  0.41144074     0.83300
O248        O  0.62164018  0.30721616  0.18584640    -0.68800
O249        O  0.80729154  0.17420017  0.32061232    -0.88100
C250        C  0.60188838  0.31216310  0.23745180     0.84200
C251        C  0.68233351  0.43869858  0.23096582     1.05700
H252        H  0.68347579  0.24064240  0.30747742     0.37500
O253        O  0.72065549  0.25702965  0.30203902    -1.10700
O254        O  0.83238767  0.25587223  0.24685769    -0.67400
Ni255      Ni  0.75430202  0.24001182  0.22753596     1.26300
O256        O  0.63291256  0.32882997  0.27604582    -0.67600
O257        O  0.76491309  0.16005164  0.24175966    -0.79900
C258        C  0.76332922  0.24791892  0.10873419     0.83500
O259        O  0.78717058  0.22952509  0.15205601    -0.67100
Ni260      Ni  0.76677589  0.23317756  0.36237871     1.27400
Ni261      Ni  0.71285005  0.33739311  0.28894526     1.26100
H262        H  0.77729049  0.33583678  0.20569909     0.38100
C263        C  0.43372561  0.87048498  0.37968101     0.79300
N264        N  0.49104880  0.85850773  0.37374158    -0.79100
C265        C  0.51471057  0.82750822  0.32924318     0.81700
N266        N  0.48077225  0.80952857  0.28906605    -0.79000
C267        C  0.42326370  0.82219735  0.29502702     0.81800
N268        N  0.40011160  0.85202321  0.34030536    -0.80700
C269        C  0.58343028  0.54545182  0.18314828     0.79300
N270        N  0.60943840  0.49801823  0.19919831    -0.79100
C271        C  0.65527983  0.49605701  0.22999841     0.81700
N272        N  0.67640753  0.54549086  0.24737431    -0.79000
C273        C  0.64814215  0.59550241  0.23432605     0.81800
N274        N  0.60256684  0.59480350  0.20090908    -0.80700
O275        O  0.69891221  0.67127211  0.19558644    -0.81900
O276        O  0.79745954  0.90123837  0.23968818    -0.66600
O277        O  0.76124470  0.74656356  0.25406038    -1.13200
C278        C  0.57735986  0.82305253  0.32073537     1.05000
O279        O  0.75561089  0.91952985  0.32563643    -0.79800
O280        O  0.69475978  0.84907968  0.39390200    -0.67300
Ni281      Ni  0.77601117  0.69648350  0.19122275     1.34900
C282        C  0.70664024  0.79773974  0.40223899     0.83800
O283        O  0.86054441  0.80284909  0.22472166    -0.80300
O284        O  0.85413967  0.71740336  0.18539374    -0.90600
C285        C  0.78789182  0.93358745  0.28260277     0.83300
O286        O  0.76201116  0.74156916  0.12471478    -0.68800
O287        O  0.60280283  0.86773632  0.32993990    -0.88100
C288        C  0.76630253  0.79388761  0.11821170     0.84200
C289        C  0.88272897  0.75842717  0.20067938     1.05700
H290        H  0.68150614  0.84863617  0.23401673     0.37500
O291        O  0.70079908  0.83658818  0.26707314    -1.10700
O292        O  0.70502413  0.76077812  0.36219618    -0.67400
Ni293      Ni  0.68299619  0.75995833  0.28160348     1.26300
O294        O  0.76935599  0.82661961  0.16131750    -0.67600
O295        O  0.60305148  0.77694112  0.30484782    -0.79900
C296        C  0.67485768  0.65050367  0.24062622     0.83500
O297        O  0.66915803  0.67963698  0.28660279    -0.67100
Ni298      Ni  0.68008446  0.89062782  0.32602134     1.27400
Ni299      Ni  0.78074118  0.82244636  0.24378513     1.26100
H300        H  0.78211251  0.73141137  0.28489205     0.38100
O301        O  0.10064742  0.74677659  0.27694504    -0.81900
O302        O  0.35797395  0.76338717  0.25886107    -0.66600
O303        O  0.20105491  0.79950056  0.29324752    -1.13200
C304        C  0.21593714  0.83756368  0.09231009     1.05000
O305        O  0.36706929  0.84861697  0.22129284    -0.79800
O306        O  0.28366295  0.92221480  0.18396293    -0.67300
Ni307      Ni  0.15175929  0.75057209  0.33709279     1.34900
C308        C  0.23781630  0.93600826  0.21473056     0.83800
O309        O  0.28882396  0.75904070  0.35671593    -0.80300
O310        O  0.19986691  0.75365679  0.40046763    -0.90600
C311        C  0.38474034  0.80841638  0.25242912     0.83300
O312        O  0.18326017  0.67577354  0.31556401    -0.68800
O313        O  0.26970015  0.84451811  0.09538105    -0.88100
C314        C  0.22666432  0.66118957  0.28208675     0.84200
C315        C  0.25450647  0.75437299  0.40146732     1.05700
H316        H  0.26860834  0.76354760  0.17930565     0.37500
O317        O  0.26670009  0.79750699  0.20149772    -1.10700
O318        O  0.20077212  0.89873692  0.22983574    -0.67400
Ni319      Ni  0.18905661  0.81818679  0.21535443     1.26300
O320        O  0.26305629  0.69755594  0.26297810    -0.67600
O321        O  0.18028955  0.83226147  0.13606800    -0.79900
C322        C  0.08272594  0.78383039  0.24263934     0.83500
O323        O  0.10859848  0.82892530  0.23216645    -0.67100
Ni324      Ni  0.31641395  0.84764681  0.16007278     1.27400
Ni325      Ni  0.27844130  0.77675656  0.27834380     1.26100
H326        H  0.20024978  0.83398631  0.31448766     0.38100
O327        O  0.36318766  0.24285295  0.21266005    -0.81900
O328        O  0.09426171  0.27385239  0.26559976    -0.66600
O329        O  0.25121011  0.29513679  0.21006872    -1.13200
C330        C  0.26433743  0.35178251  0.40350688     1.05000
O331        O  0.09158628  0.36155043  0.29765284    -0.79800
O332        O  0.18272838  0.43122107  0.31574507    -0.67300
Ni333      Ni  0.29742782  0.24134999  0.16503114     1.34900
C334        C  0.22557013  0.44057741  0.28029836     0.83800
O335        O  0.15343766  0.25840668  0.16220550    -0.77100
O336        O  0.23821841  0.24068345  0.11138734    -0.90600
C337        C  0.06582305  0.31940703  0.27971995     0.83300
O338        O  0.27075515  0.17055587  0.19881281    -0.68800
O339        O  0.20963926  0.35998559  0.40562198    -0.88100
C340        C  0.22771406  0.15813526  0.23299202     0.84200
C341        C  0.18329808  0.24690997  0.11567450     1.05700
H342        H  0.19983461  0.27168448  0.33280312     0.37500
O343        O  0.19807593  0.30378192  0.30790667    -1.10700
O344        O  0.25996130  0.39982598  0.26197540    -0.67400
Ni345      Ni  0.27475607  0.31979138  0.28170439     1.26300
O346        O  0.19111805  0.19713734  0.25327865    -0.67600
O347        O  0.29543330  0.34064008  0.35718347    -0.79900
C348        C  0.38470231  0.28563588  0.23468689     0.83500
O349        O  0.35273901  0.32795248  0.25109317    -0.67100
Ni350      Ni  0.15323375  0.36117516  0.34922012     1.27400
Ni351      Ni  0.17437640  0.27884069  0.23629899     1.26100
H352        H  0.24840364  0.32781580  0.18609307     0.38100
C353        C  0.42838387  0.90659330  0.63776885    -0.06200
C354        C  0.46706438  0.94542658  0.61410588    -0.06100
C355        C  0.46729998  0.95904682  0.55660479    -0.24300
C356        C  0.42863591  0.93402609  0.52306063     0.17900
C357        C  0.38231453  0.90470729  0.54935822     0.15100
C358        C  0.38149828  0.89251465  0.60747162    -0.19300
C359        C  0.34320764  0.88030077  0.51573812    -0.21200
C360        C  0.35598596  0.87601231  0.45714144    -0.13700
C361        C  0.40780629  0.89605158  0.43241441     0.02900
C362        C  0.44067268  0.93015996  0.46421340    -0.25900
H363        H  0.50201496  0.95904115  0.63771166     0.08000
H364        H  0.50181140  0.98337909  0.53734486     0.11600
H365        H  0.35032094  0.86394758  0.62570765     0.11600
H366        H  0.30634690  0.85940302  0.53513814     0.11300
H367        H  0.32897613  0.85139556  0.43252919     0.11900
H368        H  0.47978193  0.94717007  0.44460485     0.13800
C369        C  0.47900023  0.29365270  0.40563185    -0.06200
C370        C  0.43924941  0.26321225  0.43899255    -0.06100
C371        C  0.43012722  0.27424110  0.49665523    -0.24300
C372        C  0.45988906  0.31657070  0.52090728     0.17900
C373        C  0.49940932  0.34826880  0.48759689     0.15100
C374        C  0.50928098  0.33608291  0.42981304    -0.19300
C375        C  0.52829412  0.39097754  0.51297450    -0.21200
C376        C  0.51974108  0.40024223  0.57176336    -0.13700
C377        C  0.48072154  0.36816189  0.60461537     0.02900
C378        C  0.45085206  0.32690883  0.57845952    -0.25900
H379        H  0.41535854  0.23099435  0.42037236     0.08000
H380        H  0.39944314  0.25007951  0.52220608     0.11600
H381        H  0.53922604  0.36040499  0.40347166     0.11600
H382        H  0.55848859  0.41589427  0.48776087     0.11300
H383        H  0.54438474  0.43099264  0.59169442     0.11900
H384        H  0.42220460  0.30017931  0.60349953     0.13800
C385        C  0.70889687  0.49315787  0.52482570    -0.06200
C386        C  0.70752642  0.51738637  0.57923827    -0.06100
C387        C  0.74301966  0.56065475  0.58953736    -0.24300
C388        C  0.77833614  0.58222661  0.54492986     0.17900
C389        C  0.77957908  0.55891300  0.48978692     0.15100
C390        C  0.74561970  0.51379216  0.48027692    -0.19300
C391        C  0.81163626  0.58397686  0.44454525    -0.21200
C392        C  0.83173313  0.63736745  0.45197083    -0.13700
C393        C  0.82039555  0.66414564  0.50491074     0.02900
C394        C  0.80612825  0.63148185  0.55290018    -0.25900
H395        H  0.68015382  0.50180213  0.61450864     0.08000
H396        H  0.74089468  0.57883288  0.63174676     0.11600
H397        H  0.74767086  0.49510922  0.43830445     0.11600
H398        H  0.81462241  0.56591576  0.40227869     0.11300
H399        H  0.84636315  0.66091308  0.41463883     0.11900
H400        H  0.80183164  0.65049012  0.59480958     0.13800
C401        C  0.40857412  0.66309379  0.49148385    -0.06200
C402        C  0.42331827  0.64148931  0.43645009    -0.06100
C403        C  0.42953787  0.58376934  0.42821702    -0.24300
C404        C  0.42202237  0.54797303  0.47507020     0.17900
C405        C  0.42071376  0.57035515  0.53068251     0.15100
C406        C  0.41729245  0.62834217  0.53840611    -0.19300
C407        C  0.41316654  0.53506436  0.57774570    -0.21200
C408        C  0.39733622  0.48045063  0.57007294    -0.13700
C409        C  0.38982083  0.46017452  0.51516030     0.02900
C410        C  0.40760852  0.49231118  0.46756389    -0.25900
H411        H  0.42046283  0.66794799  0.39928021     0.08000
H412        H  0.43292467  0.56741083  0.38522448     0.11600
H413        H  0.40929000  0.64488338  0.58118219     0.11600
H414        H  0.41335318  0.55118150  0.62064281     0.11300
H415        H  0.38597616  0.45600568  0.60773069     0.11900
H416        H  0.40365980  0.47652457  0.42504127     0.13800
C417        C  0.32719501  0.55630032  0.13322395    -0.06200
C418        C  0.34556111  0.61020604  0.11783183    -0.06100
C419        C  0.40416264  0.62001113  0.11087697    -0.24300
C420        C  0.44373383  0.57547377  0.11669854     0.17900
C421        C  0.42449007  0.52008415  0.11564420     0.15100
C422        C  0.36557134  0.51068013  0.12209743    -0.19300
C423        C  0.46388287  0.47525642  0.11870227    -0.21200
C424        C  0.51873404  0.48494021  0.13413753    -0.13700
C425        C  0.53456185  0.53956111  0.14741972     0.02900
C426        C  0.49929882  0.58511761  0.13256928    -0.25900
H427        H  0.31583225  0.64614935  0.12168210     0.08000
H428        H  0.41798579  0.66266751  0.10845593     0.11600
H429        H  0.35141327  0.46861699  0.13023163     0.11600
H430        H  0.45064116  0.43258044  0.11554934     0.11300
H431        H  0.54644725  0.44862721  0.14124084     0.11900
H432        H  0.51202296  0.62735605  0.13987875     0.13800
C433        C  0.32906210  0.57650515  0.88142223    -0.06200
C434        C  0.34695100  0.63174435  0.88545254    -0.06100
C435        C  0.40390459  0.64182722  0.89466218    -0.24300
C436        C  0.44302897  0.59674074  0.90023674     0.17900
C437        C  0.42240398  0.54220837  0.90775957     0.15100
C438        C  0.36478679  0.53256021  0.89976341    -0.19300
C439        C  0.46131527  0.49717273  0.91427703    -0.21200
C440        C  0.51991608  0.50449810  0.90278262    -0.13700
C441        C  0.53993093  0.55689045  0.88482911     0.02900
C442        C  0.50222433  0.60399404  0.88991531    -0.25900
H443        H  0.31919891  0.66682160  0.87441964     0.08000
H444        H  0.41850180  0.68415966  0.89097854     0.11600
H445        H  0.35080803  0.48995570  0.89905366     0.11600
H446        H  0.44634958  0.45537316  0.92202896     0.11300
H447        H  0.54875761  0.46788001  0.90201769     0.11900
H448        H  0.51748093  0.64485696  0.87786728     0.13800
C449        C  0.96858630  0.37491279  0.94493475    -0.06200
C450        C  0.02122343  0.39037799  0.96425982    -0.06100
C451        C  0.02443549  0.40815371  0.01993015    -0.24300
C452        C  0.97500586  0.41056168  0.05723451     0.17900
C453        C  0.92084931  0.40089098  0.03667108     0.15100
C454        C  0.91783369  0.38367791  0.98021847    -0.19300
C455        C  0.87151519  0.40375161  0.07434090    -0.21200
C456        C  0.87706639  0.40753432  0.13271809    -0.13700
C457        C  0.93207034  0.40745126  0.15378789     0.02900
C458        C  0.97993064  0.41588795  0.11567190    -0.25900
H459        H  0.06050286  0.38697644  0.93687801     0.08000
H460        H  0.06608427  0.41657689  0.03468009     0.11600
H461        H  0.87683018  0.37314521  0.96532463     0.11600
H462        H  0.82939183  0.39806011  0.05931277     0.11300
H463        H  0.83888591  0.40379822  0.16132322     0.11900
H464        H  0.02230015  0.41789216  0.13130191     0.13800
C465        C  0.03719827  0.67229724  0.08108363    -0.06200
C466        C  0.99613215  0.64010752  0.05705418    -0.06100
C467        C  0.99822591  0.63275136  0.99835696    -0.24300
C468        C  0.04098227  0.65824898  0.96374436     0.17900
C469        C  0.08803769  0.68132591  0.98855504     0.15100
C470        C  0.08684684  0.68640704  0.04776308    -0.19300
C471        C  0.13039448  0.70732750  0.95389273    -0.21200
C472        C  0.12044574  0.71996338  0.89764072    -0.13700
C473        C  0.06873301  0.70568739  0.87568610     0.02900
C474        C  0.03261266  0.66917029  0.90661414    -0.25900
H475        H  0.95858787  0.62678443  0.08265481     0.08000
H476        H  0.96274505  0.61339838  0.98001652     0.11600
H477        H  0.11938111  0.71010303  0.06627293     0.11600
H478        H  0.16764065  0.72368165  0.97184280     0.11300
H479        H  0.14988568  0.74650110  0.87400452     0.11900
H480        H  0.99356149  0.65626680  0.88915545     0.13800
C481        C  0.93997474  0.06814625  0.75851642    -0.06200
C482        C  0.95791014  0.12096419  0.77404006    -0.06100
C483        C  0.00646970  0.12534807  0.80402455    -0.24300
C484        C  0.03803223  0.07710481  0.81796387     0.17900
C485        C  0.02264338  0.02436335  0.79878772     0.15100
C486        C  0.97392698  0.02020937  0.76888233    -0.19300
C487        C  0.05516361  0.97638703  0.81138326    -0.21200
C488        C  0.10384556  0.98085282  0.84128779    -0.13700
C489        C  0.12057069  0.03344680  0.85972038     0.02900
C490        C  0.08551634  0.08102440  0.84971485    -0.25900
H491        H  0.93263657  0.15871196  0.76608329     0.08000
H492        H  0.01842762  0.16620679  0.81753467     0.11600
H493        H  0.96085011  0.97930947  0.75662108     0.11600
H494        H  0.04336718  0.93558888  0.79761219     0.11300
H495        H  0.12960762  0.94313334  0.84781771     0.11900
H496        H  0.09778783  0.12197036  0.86278698     0.13800
C497        C  0.93372852  0.03602225  0.37552147    -0.06200
C498        C  0.94739008  0.08921197  0.39504319    -0.06100
C499        C  0.00295768  0.09948549  0.40826414    -0.24300
C500        C  0.04482432  0.05633381  0.40326970     0.17900
C501        C  0.02807294  0.00057394  0.39693353     0.15100
C502        C  0.97194753  0.99047054  0.38306058    -0.19300
C503        C  0.07005837  0.95728702  0.39548104    -0.21200
C504        C  0.12778646  0.97019232  0.38701476    -0.13700
C505        C  0.14260999  0.02608920  0.37605489     0.02900
C506        C  0.10289871  0.06884535  0.39407609    -0.25900
H507        H  0.91718591  0.12463859  0.39360738     0.08000
H508        H  0.01440001  0.14208698  0.41581287     0.11600
H509        H  0.96106448  0.94891390  0.37063168     0.11600
H510        H  0.05836505  0.91402599  0.39377613     0.11300
H511        H  0.15895454  0.93600496  0.37806779     0.11900
H512        H  0.11456989  0.11209936  0.38956638     0.13800
C513        C  0.85613445  0.94396558  0.01432825    -0.06200
C514        C  0.86902860  0.96374752  0.06791196    -0.06100
C515        C  0.89053502  0.01656378  0.07317173    -0.24300
C516        C  0.89834241  0.05048685  0.02507371     0.17900
C517        C  0.89116339  0.02876851  0.97044952     0.15100
C518        C  0.87141774  0.97494013  0.96527340    -0.19300
C519        C  0.89928546  0.06299414  0.92245225    -0.21200
C520        C  0.90466793  0.12018715  0.92949037    -0.13700
C521        C  0.90087017  0.14303929  0.98462538     0.02900
C522        C  0.90653231  0.10733974  0.03133990    -0.25900
H523        H  0.85968793  0.93972851  0.10632035     0.08000
H524        H  0.89690616  0.03231288  0.11519882     0.11600
H525        H  0.86343149  0.95933409  0.92359919     0.11600
H526        H  0.89598348  0.04656803  0.88011434     0.11300
H527        H  0.90301090  0.14684701  0.89237713     0.11900
H528        H  0.90677259  0.12460424  0.07381445     0.13800
C529        C  0.06162850  0.11608157  0.03693704    -0.06200
C530        C  0.06320417  0.08983612  0.09064897    -0.06100
C531        C  0.05535315  0.03274742  0.09666173    -0.24300
C532        C  0.04574383  0.00089887  0.04909112     0.17900
C533        C  0.03488399  0.02775300  0.99751685     0.15100
C534        C  0.04192320  0.08578037  0.99182352    -0.19300
C535        C  0.02257068  0.99479867  0.95136725    -0.21200
C536        C  0.03668186  0.93731553  0.95105515    -0.13700
C537        C  0.06060499  0.91295867  0.99826113     0.02900
C538        C  0.05426172  0.94278488  0.05012864    -0.25900
H539        H  0.07559466  0.11216519  0.12735448     0.08000
H540        H  0.06213764  0.01290640  0.13716938     0.11600
H541        H  0.03669979  0.10621816  0.95151774     0.11600
H542        H  0.00763382  0.01425183  0.91376249     0.11300
H543        H  0.03543588  0.91365408  0.91219813     0.11900
H544        H  0.06744416  0.92345333  0.08900194     0.13800
loop_ 
_geom_bond_atom_site_label_1 
_geom_bond_atom_site_label_2 
_geom_bond_distance 
_geom_bond_site_symmetry_2 
_ccdc_geom_bond_type 
C1            N2   1.345   1_556  A
C1            N6   1.366       .  A
C1          C537   1.488       .  S
N2            C3   1.343       .  A
C3            N4   1.371   1_554  A
C3          C304   1.479       .  S
N4            C5   1.375       .  A
C5            N6   1.371       .  A
C5          C168   1.502       .  S
C7            N8   1.352       .  A
C7           N12   1.355   1_556  A
C7          C521   1.470       .  S
N8            C9   1.352       .  A
C9           N10   1.358   1_556  A
C9          C132   1.448       .  S
N10          C11   1.360       .  A
C11          N12   1.351       .  A
C11         C258   1.458       .  S
C13          N14   1.357   1_545  A
C13          N18   1.340       .  A
C13         C497   1.479       .  S
N14          C15   1.368       .  A
C15          N16   1.380   1_565  A
C15         C285   1.476       .  S
N16          C17   1.369       .  A
C17          N18   1.344       .  A
C17         C240   1.482       .  S
C19          N20   1.341   1_545  A
C19          N24   1.344       .  A
C19         C489   1.475       .  S
N20          C21   1.348       .  A
C21          N22   1.361   1_565  A
C21         C164   1.431       .  S
N22          C23   1.360       .  A
C23          N24   1.350       .  A
C23         C101   1.449       .  S
C25          N26   1.353       .  A
C25          N30   1.348   1_455  A
C25         C465   1.471       .  S
N26          C27   1.360       .  A
C27          N28   1.361   1_455  A
C27         C322   1.448       .  S
N28          C29   1.359       .  A
C29          N30   1.351       .  A
C29         C289   1.455       .  S
C31          N32   1.343   1_655  A
C31          N36   1.346       .  A
C31         C449   1.473       .  S
N32          C33   1.350       .  A
C33          N34   1.393   1_455  A
C33         C104   1.504       .  S
N34          C35   1.393       .  A
C35          N36   1.358       .  A
C35         C136   1.509       .  S
C37          N38   1.346       .  A
C37          N42   1.353   1_554  A
C37         C513   1.469       .  S
N38          C39   1.347       .  A
C39          N40   1.398       .  A
C39         C288   1.526       .  S
N40          C41   1.401   1_554  A
C41          N42   1.356       .  A
C41         C212   1.530       .  S
C43          N44   1.364       .  A
C43          N48   1.346       .  A
C43         C341   1.471       .  S
N44          C45   1.369   1_554  A
C45          N46   1.370       .  A
C45         C105   1.487       .  S
N46          C47   1.368   1_556  A
C47          N48   1.352       .  A
C47         C529   1.491       .  S
C49          N50   1.342       .  A
C49          N54   1.346       .  A
C49         C481   1.462       .  S
N50          C51   1.351       .  A
C51          N52   1.362       .  A
C51         C150   1.466       .  S
N52          C53   1.370       .  A
C53          N54   1.350       .  A
C53         C226   1.447   1_545  S
C55          N56   1.366       .  A
C55          N60   1.414       .  A
C55         C340   1.565       .  S
N56          C57   1.364       .  A
C57          N58   1.346   1_545  A
C57         C505   1.482       .  S
N58          C59   1.341       .  A
C59          N60   1.407   1_565  A
C59         C308   1.551       .  S
C61          N62   1.347       .  A
C61          N66   1.349   1_455  A
C61         C473   1.472       .  S
N62          C63   1.353       .  A
C63          N64   1.375       .  A
C63         C182   1.474       .  S
N64          C65   1.375   1_455  A
C65          N66   1.355       .  A
C65         C208   1.483       .  S
C67          N68   1.361   1_455  A
C67          N72   1.380   1_455  A
C67         C337   1.500       .  S
N68          C69   1.359       .  A
C69          N70   1.346       .  A
C69         C457   1.478       .  S
N70          C71   1.346       .  A
C71          N72   1.379       .  A
C71         C244   1.479       .  S
C73          N74   1.349       .  A
C73          N78   1.355       .  A
C73         C433   1.480       .  S
N74          C75   1.353       .  A
C75          N76   1.355       .  A
C75         C175   1.451       .  S
N76          C77   1.361       .  A
C77          N78   1.359       .  A
C77         C112   1.446       .  S
C79          N80   1.406       .  A
C79          N84   1.367       .  A
C79         C334   1.553       .  S
N80          C81   1.402       .  A
C81          N82   1.341       .  A
C81         C314   1.535       .  S
N82          C83   1.344       .  A
C83          N84   1.363       .  A
C83         C417   1.481       .  S
C85          N86   1.377       .  A
C85          N90   1.361       .  A
C85         C330   1.488       .  S
N86          C87   1.371       .  A
C87          N88   1.346       .  A
C87          C94   1.482       .  S
N88          C89   1.350       .  A
C89          N90   1.360       .  A
C89         C409   1.477       .  S
O91         Ni97   1.922       .  S
O91         C112   1.267       .  A
O92        Ni115   1.859       .  S
O92         C101   1.265       .  A
O93         Ni97   1.891       .  S
O93        Ni115   1.901       .  S
O93        Ni109   1.917       .  S
O93         H116   0.966       .  S
C94         O111   1.287       .  A
C94         O103   1.280       .  A
O95        Ni114   1.945       .  S
O95         C101   1.274       .  A
O96        Ni114   1.955       .  S
O96          C98   1.275       .  A
Ni97        O100   1.972       .  S
Ni97        O102   1.912       .  S
C98         C125   1.505       .  S
C98         O108   1.275       .  A
O99        Ni115   1.914       .  S
O99         C105   1.274       .  A
O100        C105   1.286       .  A
O102        C104   1.255       .  A
O103       Ni114   1.941       .  S
C104        O110   1.284       .  A
H106        O107   0.966       .  S
O107       Ni115   1.898       .  S
O107       Ni109   1.888       .  S
O107       Ni114   1.928       .  S
O108       Ni109   1.956       .  S
Ni109       O113   1.902       .  S
Ni109       O111   1.941       .  S
O110       Ni115   2.013       .  S
C112        O113   1.269       .  A
C117        N118   1.345       .  A
C117        N122   1.351       .  A
C117        C385   1.464       .  S
N118        C119   1.347       .  A
C119        N120   1.359       .  A
C119        C143   1.457       .  S
N120        C121   1.364       .  A
C121        N122   1.353       .  A
C121        C247   1.449       .  S
C123        N124   1.347       .  A
C123        N128   1.345       .  A
C123        C377   1.460       .  S
N124        C125   1.349       .  A
C125        N126   1.392       .  A
N126        C127   1.391       .  A
C127        N128   1.353       .  A
C127        C142   1.503       .  S
O129       Ni135   1.944       .  S
O129        C150   1.278       .  A
O130       Ni153   1.901       .  S
O130        C139   1.269       .  A
O131       Ni135   1.939       .  S
O131       Ni153   1.900       .  S
O131       Ni147   1.913       .  S
O131        H154   0.967       .  S
C132        O149   1.276       .  A
C132        O141   1.282       .  A
O133       Ni152   1.930       .  S
O133        C139   1.269       .  A
O134       Ni152   1.918       .  S
O134        C136   1.268       .  A
Ni135       O138   1.926       .  S
Ni135       O140   1.961       .  S
C136        O146   1.279       .  A
O137       Ni153   1.896       .  S
O137        C143   1.275       .  A
O138        C143   1.275       .  A
C139        C191   1.455       .  S
O140        C142   1.279       .  A
O141       Ni152   1.940       .  S
C142        O148   1.278       .  A
H144        O145   0.966       .  S
O145       Ni153   1.898       .  S
O145       Ni147   1.882       .  S
O145       Ni152   1.901       .  S
O146       Ni147   1.986       .  S
Ni147       O151   1.859       .  S
Ni147       O149   1.892       .  S
O148       Ni153   1.949       .  S
C150        O151   1.264       .  A
C155        N156   1.358       .  A
C155        N160   1.350       .  A
C155        C401   1.484       .  S
N156        C157   1.361       .  A
C157        N158   1.372       .  A
C157        C174   1.487       .  S
N158        C159   1.372       .  A
C159        N160   1.351       .  A
C159        C315   1.478       .  S
O161       Ni167   1.899       .  S
O161        C182   1.271       .  A
O162       Ni185   1.923       .  S
O162        C171   1.264       .  A
O163       Ni167   1.917       .  S
O163       Ni185   1.893       .  S
O163       Ni179   1.948       .  S
O163        H186   0.961       .  S
C164        O181   1.286       .  A
C164        O173   1.274       .  A
O165       Ni184   1.898       .  S
O165        C171   1.266       .  A
O166       Ni184   1.938       .  S
O166        C168   1.276       .  A
Ni167       O170   1.938       .  S
Ni167       O172   1.952       .  S
C168        O178   1.278       .  A
O169       Ni185   1.893       .  S
O169        C175   1.265       .  A
O170        C175   1.276       .  A
C171        C197   1.460       .  S
O172        C174   1.278       .  A
O173       Ni184   1.906       .  S
C174        O180   1.274       .  A
H176        O177   0.962       .  S
O177       Ni185   1.928       .  S
O177       Ni179   1.878       .  S
O177       Ni184   1.911       .  S
O178       Ni179   1.948       .  S
Ni179       O183   1.944       .  S
Ni179       O181   1.915       .  S
O180       Ni185   1.924       .  S
C182        O183   1.272       .  A
C187        N188   1.360       .  A
C187        N192   1.352       .  A
C187        C441   1.476       .  S
N188        C189   1.362       .  A
C189        N190   1.361       .  A
C189        C215   1.460       .  S
N190        C191   1.358       .  A
C191        N192   1.348       .  A
C193        N194   1.343       .  A
C193        N198   1.345       .  A
C193        C353   1.473       .  S
N194        C195   1.353       .  A
C195        N196   1.367       .  A
C195        C219   1.463       .  S
N196        C197   1.367       .  A
C197        N198   1.355       .  A
C199        N200   1.356       .  A
C199        N204   1.354       .  A
C199        C393   1.470       .  S
N200        C201   1.350       .  A
C201        N202   1.394       .  A
C201        C218   1.528       .  S
N202        C203   1.396       .  A
C203        N204   1.350       .  A
C203        C282   1.522       .  S
O205       Ni211   1.904       .  S
O205        C226   1.266       .  A
O206       Ni229   1.914       .  S
O206        C215   1.273       .  A
O207       Ni211   1.924       .  S
O207       Ni229   1.903       .  S
O207       Ni223   1.921       .  S
O207        H230   0.966       .  S
C208        O225   1.280       .  A
C208        O217   1.282       .  A
O209       Ni228   1.927       .  S
O209        C215   1.272       .  A
O210       Ni228   1.934       .  S
O210        C212   1.267       .  A
Ni211       O214   1.889       .  S
Ni211       O216   1.941       .  S
C212        O222   1.296       .  A
O213       Ni229   1.934       .  S
O213        C219   1.275       .  A
O214        C219   1.271       .  A
O216        C218   1.270       .  A
O217       Ni228   1.928       .  S
C218        O224   1.295       .  A
H220        O221   0.966       .  S
O221       Ni229   1.913       .  S
O221       Ni223   1.894       .  S
O221       Ni228   1.906       .  S
O222       Ni223   2.000       .  S
Ni223       O227   1.904       .  S
Ni223       O225   1.942       .  S
O224       Ni229   1.995       .  S
C226        O227   1.273       .  A
C231        N232   1.391       .  A
C231        N236   1.351       .  A
C231        C348   1.488       .  S
N232        C233   1.387       .  A
C233        N234   1.348       .  A
C233        C250   1.500       .  S
N234        C235   1.337       .  A
C235        N236   1.343       .  A
C235        C369   1.448       .  S
O237       Ni243   1.913       .  S
O237        C258   1.270       .  A
O238       Ni261   1.898       .  S
O238        C247   1.267       .  A
O239       Ni243   1.919       .  S
O239       Ni261   1.890       .  S
O239       Ni255   1.918       .  S
O239        H262   0.965       .  S
C240        O257   1.269       .  A
C240        O249   1.266       .  A
O241       Ni260   1.905       .  S
O241        C247   1.266       .  A
O242       Ni260   1.922       .  S
O242        C244   1.276       .  A
Ni243       O246   1.913       .  S
Ni243       O248   1.946       .  S
C244        O254   1.286       .  A
O245       Ni261   1.954       .  S
O245        C251   1.275       .  A
O246        C251   1.279       .  A
O248        C250   1.271       .  A
O249       Ni260   1.903       .  S
C250        O256   1.280       .  A
C251        C271   1.489       .  S
H252        O253   0.966       .  S
O253       Ni261   1.951       .  S
O253       Ni255   1.906       .  S
O253       Ni260   1.919       .  S
O254       Ni255   1.964       .  S
Ni255       O259   1.896       .  S
Ni255       O257   1.952       .  S
O256       Ni261   1.932       .  S
C258        O259   1.268       .  A
C263        N264   1.354       .  A
C263        N268   1.347       .  A
C263        C361   1.465       .  S
N264        C265   1.357       .  A
C265        N266   1.362       .  A
C265        C278   1.461       .  S
N266        C267   1.361       .  A
C267        N268   1.352       .  A
C267        C311   1.446       .  S
C269        N270   1.333       .  A
C269        N274   1.359       .  A
C269        C425   1.480       .  S
N270        C271   1.337       .  A
C271        N272   1.376       .  A
N272        C273   1.389       .  A
C273        N274   1.372       .  A
C273        C296   1.493       .  S
O275       Ni281   1.917       .  S
O275        C296   1.271       .  A
O276       Ni299   1.943       .  S
O276        C285   1.277       .  A
O277       Ni281   1.911       .  S
O277       Ni299   1.901       .  S
O277       Ni293   1.906       .  S
O277        H300   0.967       .  S
C278        O295   1.279       .  A
C278        O287   1.272       .  A
O279       Ni298   1.919       .  S
O279        C285   1.269       .  A
O280       Ni298   1.926       .  S
O280        C282   1.267       .  A
Ni281       O284   1.905       .  S
Ni281       O286   1.940       .  S
C282        O292   1.300       .  A
O283       Ni299   1.922       .  S
O283        C289   1.279       .  A
O284        C289   1.278       .  A
O286        C288   1.269       .  A
O287       Ni298   1.902       .  S
C288        O294   1.294       .  A
H290        O291   0.966       .  S
O291       Ni299   1.922       .  S
O291       Ni293   1.922       .  S
O291       Ni298   1.924       .  S
O292       Ni293   2.005       .  S
Ni293       O297   1.965       .  S
Ni293       O295   1.932       .  S
O294       Ni299   1.983       .  S
C296        O297   1.287       .  A
O301       Ni307   1.926       .  S
O301        C322   1.277       .  A
O302       Ni325   1.893       .  S
O302        C311   1.271       .  A
O303       Ni307   1.919       .  S
O303       Ni325   1.873       .  S
O303       Ni319   1.926       .  S
O303        H326   0.966       .  S
C304        O321   1.284       .  A
C304        O313   1.280       .  A
O305       Ni324   1.934       .  S
O305        C311   1.282       .  A
O306       Ni324   1.981       .  S
O306        C308   1.279       .  A
Ni307       O310   1.939       .  S
Ni307       O312   1.963       .  S
C308        O318   1.298       .  A
O309       Ni325   1.924       .  S
O309        C315   1.282       .  A
O310        C315   1.278       .  A
O312        C314   1.274       .  A
O313       Ni324   1.944       .  S
C314        O320   1.297       .  A
H316        O317   0.967       .  S
O317       Ni325   1.912       .  S
O317       Ni319   1.864       .  S
O317       Ni324   1.916       .  S
O318       Ni319   1.994       .  S
Ni319       O323   1.897       .  S
Ni319       O321   1.922       .  S
O320       Ni325   1.985       .  S
C322        O323   1.273       .  A
O327       Ni333   1.971       .  S
O327        C348   1.287       .  A
O328       Ni351   1.952       .  S
O328        C337   1.286       .  A
O329       Ni333   1.917       .  S
O329       Ni351   1.907       .  S
O329       Ni345   1.917       .  S
O329        H352   0.966       .  S
C330        O347   1.287       .  A
C330        O339   1.281       .  A
O331       Ni350   1.953       .  S
O331        C337   1.285       .  A
O332       Ni350   1.977       .  S
O332        C334   1.279       .  A
Ni333       O336   1.943       .  S
Ni333       O338   1.973       .  S
C334        O344   1.293       .  A
O335       Ni351   1.919       .  S
O335        C341   1.278       .  A
O336        C341   1.281       .  A
O338        C340   1.283       .  A
O339       Ni350   1.940       .  S
C340        O346   1.307       .  A
H342        O343   0.966       .  S
O343       Ni351   1.920       .  S
O343       Ni345   1.902       .  S
O343       Ni350   1.916       .  S
O344       Ni345   1.993       .  S
Ni345       O349   1.923       .  S
Ni345       O347   1.950       .  S
O346       Ni351   2.024       .  S
C348        O349   1.277       .  A
C353        C354   1.406       .  A
C353        C358   1.404       .  A
C354        C355   1.392       .  A
C354        H363   1.083       .  S
C355        C356   1.398       .  A
C355        H364   1.084       .  S
C356        C362   1.396       .  A
C356        C357   1.415       .  A
C357        C359   1.400       .  A
C357        C358   1.398       .  A
C358        H365   1.083       .  S
C359        C360   1.393       .  A
C359        H366   1.083       .  S
C360        C361   1.404       .  A
C360        H367   1.082       .  S
C361        C362   1.400       .  A
C362        H368   1.085       .  S
C369        C370   1.396       .  A
C369        C374   1.408       .  A
C370        C371   1.384       .  A
C370        H379   1.083       .  S
C371        C372   1.400       .  A
C371        H380   1.084       .  S
C372        C378   1.378       .  A
C372        C373   1.409       .  A
C373        C375   1.407       .  A
C373        C374   1.394       .  A
C374        H381   1.085       .  S
C375        C376   1.402       .  A
C375        H382   1.083       .  S
C376        C377   1.401       .  A
C376        H383   1.083       .  S
C377        C378   1.403       .  A
C378        H384   1.085       .  S
C385        C386   1.407       .  A
C385        C390   1.405       .  A
C386        C387   1.386       .  A
C386        H395   1.083       .  S
C387        C388   1.396       .  A
C387        H396   1.084       .  S
C388        C394   1.389       .  A
C388        C389   1.414       .  A
C389        C391   1.402       .  A
C389        C390   1.395       .  A
C390        H397   1.084       .  S
C391        C392   1.396       .  A
C391        H398   1.084       .  S
C392        C393   1.407       .  A
C392        H399   1.083       .  S
C393        C394   1.399       .  A
C394        H400   1.085       .  S
C401        C402   1.411       .  A
C401        C406   1.403       .  A
C402        C403   1.397       .  A
C402        H411   1.083       .  S
C403        C404   1.400       .  A
C403        H412   1.084       .  S
C404        C410   1.403       .  A
C404        C405   1.416       .  A
C405        C407   1.396       .  A
C405        C406   1.400       .  A
C406        H413   1.085       .  S
C407        C408   1.390       .  A
C407        H414   1.084       .  S
C408        C409   1.410       .  A
C408        H415   1.083       .  S
C409        C410   1.403       .  A
C410        H416   1.084       .  S
C417        C418   1.414       .  A
C417        C422   1.397       .  A
C418        C419   1.394       .  A
C418        H427   1.083       .  S
C419        C420   1.396       .  A
C419        H428   1.084       .  S
C420        C426   1.405       .  A
C420        C421   1.419       .  A
C421        C423   1.390       .  A
C421        C422   1.399       .  A
C422        H429   1.085       .  S
C423        C424   1.386       .  A
C423        H430   1.084       .  S
C424        C425   1.416       .  A
C424        H431   1.083       .  S
C425        C426   1.400       .  A
C426        H432   1.084       .  S
C433        C434   1.409       .  A
C433        C438   1.404       .  A
C434        C435   1.394       .  A
C434        H443   1.083       .  S
C435        C436   1.398       .  A
C435        H444   1.084       .  S
C436        C442   1.402       .  A
C436        C437   1.416       .  A
C437        C439   1.397       .  A
C437        C438   1.401       .  A
C438        H445   1.084       .  S
C439        C440   1.392       .  A
C439        H446   1.084       .  S
C440        C441   1.409       .  A
C440        H447   1.083       .  S
C441        C442   1.402       .  A
C442        H448   1.084       .  S
C449        C450   1.406   1_655  A
C449        C454   1.404       .  A
C450        C451   1.389   1_556  A
C450        H459   1.081       .  S
C451        C452   1.396   1_455  A
C451        H460   1.084       .  S
C452        C458   1.397       .  A
C452        C453   1.416       .  A
C453        C455   1.399       .  A
C453        C454   1.402   1_554  A
C454        H461   1.084       .  S
C455        C456   1.395       .  A
C455        H462   1.084       .  S
C456        C457   1.411       .  A
C456        H463   1.082       .  S
C457        C458   1.400       .  A
C458        H464   1.084   1_655  S
C465        C466   1.407   1_455  A
C465        C470   1.401       .  A
C466        C467   1.392   1_554  A
C466        H475   1.083       .  S
C467        C468   1.398   1_655  A
C467        H476   1.084       .  S
C468        C474   1.397       .  A
C468        C469   1.415       .  A
C469        C471   1.398       .  A
C469        C470   1.399   1_556  A
C470        H477   1.085       .  S
C471        C472   1.393       .  A
C471        H478   1.083       .  S
C472        C473   1.404       .  A
C472        H479   1.077       .  S
C473        C474   1.403       .  A
C474        H480   1.085   1_455  S
C481        C482   1.407       .  A
C481        C486   1.400       .  A
C482        C483   1.388   1_655  A
C482        H491   1.083       .  S
C483        C484   1.397       .  A
C483        H492   1.084       .  S
C484        C490   1.390       .  A
C484        C485   1.412       .  A
C485        C487   1.395   1_545  A
C485        C486   1.390   1_455  A
C486        H493   1.085   1_545  S
C487        C488   1.390       .  A
C487        H494   1.084       .  S
C488        C489   1.414   1_565  A
C488        H495   1.082       .  S
C489        C490   1.406       .  A
C490        H496   1.085       .  S
C497        C498   1.413       .  A
C497        C502   1.401   1_545  A
C498        C499   1.389   1_655  A
C498        H507   1.083       .  S
C499        C500   1.393       .  A
C499        H508   1.084       .  S
C500        C506   1.401       .  A
C500        C501   1.418       .  A
C501        C503   1.396   1_545  A
C501        C502   1.405   1_445  A
C502        H509   1.084       .  S
C503        C504   1.394       .  A
C503        H510   1.084       .  S
C504        C505   1.414   1_565  A
C504        H511   1.084       .  S
C505        C506   1.398       .  A
C506        H512   1.084       .  S
C513        C514   1.408       .  A
C513        C518   1.402   1_554  A
C514        C515   1.389   1_565  A
C514        H523   1.083       .  S
C515        C516   1.396       .  A
C515        H524   1.084       .  S
C516        C522   1.393       .  A
C516        C517   1.415   1_554  A
C517        C519   1.400       .  A
C517        C518   1.395   1_545  A
C518        H525   1.084       .  S
C519        C520   1.392       .  A
C519        H526   1.083       .  S
C520        C521   1.407       .  A
C520        H527   1.083       .  S
C521        C522   1.402   1_556  A
C522        H528   1.085       .  S
C529        C530   1.413       .  A
C529        C534   1.406   1_554  A
C530        C531   1.392       .  A
C530        H539   1.083       .  S
C531        C532   1.396       .  A
C531        H540   1.084       .  S
C532        C538   1.398   1_545  A
C532        C533   1.408   1_554  A
C533        C535   1.400   1_545  A
C533        C534   1.411       .  A
C534        H541   1.079       .  S
C535        C536   1.403       .  A
C535        H542   1.074   1_565  S
C536        C537   1.397       .  A
C536        H543   1.082       .  S
C537        C538   1.413   1_556  A
C538        H544   1.084       .  S
