geometry optimzed in LAMMPS
_audit_creation_date              2020-11-30 
_audit_creation_method            'lammps2cif' 
_symmetry_space_group_name_H-M    'P1' 
_symmetry_Int_Tables_number       1 
_symmetry_cell_setting            triclinic 
loop_ 
_symmetry_equiv_pos_as_xyz 
  x,y,z 
_cell_length_a                    41.81160304 
_cell_length_b                    41.81987451492091 
_cell_length_c                    38.74121092850171 
_cell_angle_alpha                 89.96518181316483 
_cell_angle_beta                  90.00041498949946 
_cell_angle_gamma                 120.64657822096518 
loop_ 
_atom_site_label 
_atom_site_type_symbol 
_atom_site_fract_x 
_atom_site_fract_y 
_atom_site_fract_z 
_atom_site_charge 
O1          O  0.43743679  0.81097737  0.14548413    -0.83900
O2          O  0.47910095  0.87450547  0.17894097    -0.81000
C3          C  0.49659434  0.90886732  0.18381638     0.99500
O4          O  0.48134803  0.92704258  0.17687301    -0.81000
O5          O  0.50836882  0.92777021  0.11293258    -0.83600
C6          C  0.50956003  0.91768094  0.08280208     1.04100
O7          O  0.48020179  0.89637275  0.06556639    -0.76400
O8          O  0.45524167  0.82926809  0.09224244    -0.76600
C9          C  0.45722264  0.81379865  0.11945302     1.04000
O10         O  0.37319656  0.82323367  0.15090755    -0.83900
O11         O  0.41358290  0.88493745  0.18843715    -0.81000
C12         C  0.40752836  0.90954849  0.17553146     0.99600
O13         O  0.41912881  0.92309034  0.14616771    -0.81000
O14         O  0.45286532  0.93694240  0.08311546    -0.83600
C15         C  0.42053053  0.91950128  0.07158075     1.04000
O16         O  0.40343412  0.88469126  0.07134839    -0.76400
O17         O  0.37705365  0.81641263  0.09499434    -0.76600
C18         C  0.35796938  0.81336493  0.12168592     1.04000
Cr19       Cr  0.42636578  0.84968431  0.16356115     1.93700
Cr20       Cr  0.46380785  0.92553450  0.12947877     1.93200
Cr21       Cr  0.42935262  0.85735122  0.08359871     1.39100
O22         O  0.43937556  0.87674040  0.12540889    -1.21700
O23         O  0.26976698  0.96261448  0.00516456    -0.83900
O24         O  0.29520649  0.01706875  0.05119272    -0.81000
C25         C  0.31926386  0.03682317  0.07307140     0.99500
O26         O  0.35246290  0.05733166  0.06433863    -0.81000
O27         O  0.37666497  0.00707277  0.05258726    -0.83600
C28         C  0.38396776  0.98527663  0.03639517     1.04100
O29         O  0.38494395  0.98537271  0.00391680    -0.76400
O30         O  0.31246895  0.94620621  0.49792215    -0.76600
C31         C  0.28104480  0.93965459  0.00989173     1.04000
O32         O  0.29550373  0.01950157  0.44802218    -0.83900
O33         O  0.32546826  0.07509565  0.49347561    -0.81000
C34         C  0.35985932  0.09852285  0.48766752     0.99600
O35         O  0.38619120  0.09327612  0.00106107    -0.81000
O36         O  0.41928095  0.05467615  0.49557386    -0.83600
C37         C  0.41831268  0.05567864  0.46326126     1.04000
O38         O  0.38939199  0.03307605  0.44690654    -0.76400
O39         O  0.31493239  0.98171166  0.43476177    -0.76600
C40         C  0.30028006  0.00019538  0.42621949     1.04000
Cr41       Cr  0.30007043  0.01895708  0.99998232     1.93700
Cr42       Cr  0.38028976  0.05007543  0.02681982     1.93200
Cr43       Cr  0.35001026  0.98962364  0.47266492     1.39100
O44         O  0.34254034  0.01918046  0.99989375    -1.21700
O45         O  0.31423726  0.94439209  0.25357639    -0.83900
O46         O  0.38891591  0.98645757  0.25255073    -0.81000
C47         C  0.38571525  0.98162699  0.22056918     0.99500
O48         O  0.37884313  0.00218841  0.20201708    -0.81000
O49         O  0.35399133  0.04905389  0.18291404    -0.83600
C50         C  0.32013525  0.03328881  0.17585431     1.04100
O51         O  0.29582961  0.01706505  0.19871284    -0.76400
O52         O  0.27187791  0.96073617  0.24458778    -0.76600
C53         C  0.28390370  0.93814625  0.24048301     1.04000
O54         O  0.31148147  0.97821214  0.31472521    -0.83900
O55         O  0.38655483  0.03303682  0.30550434    -0.81000
C56         C  0.41564597  0.05651005  0.28965077     0.99600
O57         O  0.41912209  0.05364213  0.25773913    -0.81000
O58         O  0.38619845  0.09213736  0.24354691    -0.83600
C59         C  0.36191103  0.09787195  0.25667118     1.04000
O60         O  0.32722645  0.07364451  0.25493166    -0.76400
O61         O  0.29689113  0.01929720  0.30120645    -0.76600
C62         C  0.29922240  0.99868509  0.32320355     1.04000
Cr63       Cr  0.34979243  0.98815220  0.27967183     1.93700
Cr64       Cr  0.38143829  0.04684035  0.22326316     1.93200
Cr65       Cr  0.30099170  0.01744334  0.24992179     1.39100
O66         O  0.34339792  0.01757305  0.25061727    -1.21700
O67         O  0.23505140  0.84752856  0.16584084    -0.83900
O68         O  0.24885379  0.85844070  0.09473351    -0.81000
C69         C  0.25873986  0.85383951  0.06523388     0.99500
O70         O  0.25661908  0.82348584  0.05708032    -0.81000
O71         O  0.30292827  0.80454540  0.09288356    -0.83600
C72         C  0.31746584  0.80008961  0.11976299     1.04100
O73         O  0.29844775  0.78725542  0.14698646    -0.76400
O74         O  0.27883317  0.83507452  0.17783153    -0.76600
C75         C  0.26396857  0.85460253  0.18228121     1.04000
O76         O  0.16990100  0.77903623  0.15227421    -0.83900
O77         O  0.18121838  0.79295959  0.08118873    -0.81000
C78         C  0.17475143  0.76430995  0.06466996     0.99600
O79         O  0.19493533  0.75014001  0.06880425    -0.81000
O80         O  0.24213250  0.73012081  0.10066315    -0.83600
C81         C  0.22870642  0.71205362  0.12830026     1.04000
O82         O  0.22385124  0.72744914  0.15426892    -0.76400
O83         O  0.20581368  0.77359198  0.19033979    -0.76600
C84         C  0.17494553  0.77010905  0.18206552     1.04000
Cr85       Cr  0.21137416  0.81696596  0.12348053     1.93700
Cr86       Cr  0.24804776  0.77847209  0.08360925     1.93200
Cr87       Cr  0.25046402  0.78185184  0.16355571     1.39100
O88         O  0.23675120  0.79248458  0.12348164    -1.21700
O89         O  0.40468687  0.24434165  0.41478474    -0.86300
O90         O  0.40738684  0.25895309  0.34370982    -0.81000
C91         C  0.42212732  0.26951125  0.31427144     0.99500
O92         O  0.44987657  0.26682324  0.30566103    -0.81000
O93         O  0.51518049  0.31259024  0.34142727    -0.83600
C94         C  0.53502769  0.32806908  0.36776542     1.04100
O95         O  0.52989086  0.30956269  0.39517559    -0.76400
O96         O  0.46187472  0.28759648  0.42711956    -0.76600
C97         C  0.42722450  0.27296579  0.43152428     1.04000
O98         O  0.40687174  0.17944382  0.40031530    -0.83900
O99         O  0.40378307  0.19093272  0.32909633    -0.81000
C100        C  0.42587873  0.18477256  0.31213504     0.99600
O101        O  0.46062351  0.20507056  0.31629476    -0.81000
O102        O  0.52887961  0.25184423  0.34780818    -0.83600
C103        C  0.53523524  0.23958464  0.37531161     1.04000
O104        O  0.51628727  0.23545233  0.40218324    -0.76400
O105        O  0.45036532  0.21453404  0.43784324    -0.76600
C106        C  0.42188716  0.18389020  0.42961682     1.04000
Cr107      Cr  0.41098992  0.22106777  0.37194822     1.93700
Cr108      Cr  0.48629133  0.25796818  0.33166176     1.93200
Cr109      Cr  0.48702195  0.26037316  0.41171348     1.39100
O110        O  0.46149826  0.24637984  0.37179411    -1.21700
O111        O  0.19753552  0.57581585  0.09032120    -0.83900
O112        O  0.13320675  0.56123655  0.06054607    -0.81000
C113        C  0.11000682  0.52967617  0.07333674     0.99500
O114        O  0.10046138  0.52593509  0.10437755    -0.81000
O115        O  0.09996946  0.54194863  0.17205079    -0.83600
C116        C  0.11923548  0.52725423  0.17666068     1.04100
O117        O  0.15388100  0.54635198  0.17383815    -0.76400
O118        O  0.21825262  0.59362932  0.14292746    -0.76600
C119        C  0.21436442  0.57376909  0.11653684     1.04000
O120        O  0.21718078  0.65428909  0.10338999    -0.83900
O121        O  0.14988125  0.63729196  0.07866289    -0.81000
C122        C  0.11501195  0.62189799  0.07875755     0.99600
O123        O  0.09562935  0.58804481  0.08560485    -0.81000
O124        O  0.10544301  0.60921131  0.15229902    -0.83600
C125        C  0.11814560  0.61684541  0.18227097     1.04000
O126        O  0.14148817  0.60815598  0.19329029    -0.76400
O127        O  0.20250773  0.65462245  0.15757808    -0.76600
C128        C  0.21621215  0.67181953  0.12980753     1.04000
Cr129      Cr  0.17364160  0.60653933  0.08551219     1.93700
Cr130      Cr  0.10338507  0.56773285  0.12851189     1.93200
Cr131      Cr  0.17794679  0.60037139  0.16468304     1.39100
O132        O  0.15213027  0.59168627  0.12618179    -1.21700
O133        O  0.94760917  0.27938226  0.49238831    -0.83900
O134        O  0.00212068  0.30274316  0.44675894    -0.81000
C135        C  0.02442048  0.32596998  0.42552373     0.99500
O136        O  0.04644127  0.35827380  0.43515626    -0.81000
O137        O  0.99264898  0.38009657  0.44225558    -0.83600
C138        C  0.96948024  0.38626084  0.45758860     1.04100
O139        O  0.97161978  0.39201714  0.48969817    -0.76400
O140        O  0.93096782  0.32226089  0.00456542    -0.76600
C141        C  0.92478626  0.29108295  0.49143450     1.04000
O142        O  0.00262617  0.30459223  0.04884914    -0.83900
O143        O  0.05994334  0.33682864  0.00404514    -0.81000
C144        C  0.08327167  0.37139166  0.00978947     0.99600
O145        O  0.07890915  0.39397296  0.49668978    -0.81000
O146        O  0.03838525  0.43149017  0.99416259    -0.83600
C147        C  0.04147306  0.43398951  0.02626217     1.04000
O148        O  0.02141195  0.40617370  0.04488062    -0.76400
O149        O  0.97515444  0.33463176  0.06532294    -0.76600
C150        C  0.98904084  0.31497575  0.07214293     1.04000
Cr151      Cr  0.00344102  0.30786403  0.49832336     1.93700
Cr152      Cr  0.03654397  0.38716816  0.46923528     1.93200
Cr153      Cr  0.97685361  0.36323905  0.02405145     1.39100
O154        O  0.00575736  0.35139346  0.49803564    -1.21700
O155        O  0.93924720  0.32698727  0.24857364    -0.83900
O156        O  0.98141937  0.40231253  0.24661807    -0.81000
C157        C  0.97842105  0.40136100  0.27874892     0.99500
O158        O  0.99784936  0.39282082  0.29701186    -0.81000
O159        O  0.04205941  0.36546964  0.31642974    -0.83600
C160        C  0.02701361  0.33135422  0.32256620     1.04100
O161        O  0.01285931  0.30773099  0.29882443    -0.76400
O162        O  0.95579188  0.28432008  0.25409836    -0.76600
C163        C  0.93326403  0.29609839  0.26009745     1.04000
O164        O  0.96930855  0.32209509  0.18635271    -0.83900
O165        O  0.02507648  0.39760059  0.19297570    -0.81000
C166        C  0.04947547  0.42683932  0.20797472     0.99600
O167        O  0.04887139  0.43095602  0.24020178    -0.81000
O168        O  0.08701320  0.39846039  0.25571967    -0.83600
C169        C  0.09253569  0.37482176  0.24095882     1.04000
O170        O  0.06836435  0.34017548  0.24174971    -0.76400
O171        O  0.01374354  0.31149794  0.19612501    -0.76600
C172        C  0.99110882  0.31236135  0.17560639     1.04000
Cr173      Cr  0.98148215  0.36178027  0.22054029     1.93700
Cr174      Cr  0.04159445  0.39380250  0.27567921     1.93200
Cr175      Cr  0.01242562  0.31383409  0.24776343     1.39100
O176        O  0.01199147  0.35590050  0.24849506    -1.21700
O177        O  0.56769302  0.10650828  0.33019965    -0.83900
O178        O  0.60002447  0.11501865  0.39358361    -0.81000
C179        C  0.61171127  0.12714664  0.42332250     0.99500
O180        O  0.60499484  0.15043484  0.43820845    -0.81000
O181        O  0.64567221  0.21489197  0.40549962    -0.83600
C182        C  0.66210303  0.22706416  0.37703681     1.04100
O183        O  0.64399109  0.22590032  0.35020838    -0.76400
O184        O  0.61804538  0.15907351  0.32229565    -0.76600
C185        C  0.60046088  0.12439144  0.31989330     1.04000
O186        O  0.51189699  0.11348312  0.36176052    -0.83900
O187        O  0.53714805  0.10842145  0.42506599    -0.81000
C188        C  0.52143065  0.12574619  0.43345282     0.99600
O189        O  0.53881930  0.16035806  0.43082507    -0.81000
O190        O  0.57946016  0.22577451  0.40156180    -0.83600
C191        C  0.56260638  0.22652069  0.37448154     1.04000
O192        O  0.56698347  0.21419868  0.34631227    -0.76400
O193        O  0.54138348  0.14842026  0.31630756    -0.76600
C194        C  0.51151307  0.12593341  0.33247583     1.04000
Cr195      Cr  0.55583023  0.11406174  0.37756008     1.93700
Cr196      Cr  0.59188473  0.18692381  0.41657396     1.93200
Cr197      Cr  0.59209392  0.18583979  0.33631479     1.39100
O198        O  0.58036401  0.16311935  0.37676096    -1.21700
O199        O  0.74626534  0.07895991  0.25244976    -0.83900
O200        O  0.72268316  0.02480563  0.29970657    -0.81000
C201        C  0.69913626  0.00548181  0.32221322     0.99500
O202        O  0.66555380  0.98583080  0.31447765    -0.81000
O203        O  0.64101809  0.03515871  0.30084647    -0.83600
C204        C  0.63336084  0.05628529  0.28401886     1.04100
O205        O  0.63045888  0.05406841  0.25167261    -0.76400
O206        O  0.70390052  0.09509799  0.24346312    -0.76600
C207        C  0.73466345  0.10183088  0.25581801     1.04000
O208        O  0.72086520  0.02058704  0.19714919    -0.83900
O209        O  0.69069694  0.96601936  0.24425761    -0.81000
C210        C  0.65606434  0.94216468  0.24041384     0.99600
O211        O  0.63123495  0.94750654  0.25278930    -0.81000
O212        O  0.59722502  0.98664810  0.24590762    -0.83600
C213        C  0.59789012  0.98291675  0.21385064     1.04000
O214        O  0.62616894  0.00517343  0.19654272    -0.76400
O215        O  0.69985639  0.05655546  0.18196488    -0.76600
C216        C  0.71554426  0.03878924  0.17448967     1.04000
Cr217      Cr  0.71685151  0.02248670  0.24841676     1.93700
Cr218      Cr  0.63698741  0.99136050  0.27664120     1.93200
Cr219      Cr  0.66577313  0.05022936  0.22028370     1.39100
O220        O  0.67394766  0.02146320  0.24848554    -1.21700
O221        O  0.70795982  0.09404263  0.99849980    -0.83900
O222        O  0.63630832  0.05553669  0.50005070    -0.81000
C223        C  0.63810275  0.05791663  0.46781308     0.99500
O224        O  0.64415952  0.03605839  0.45043025    -0.81000
O225        O  0.66829940  0.98775824  0.43417078    -0.83600
C226        C  0.70177801  0.00569261  0.42545023     1.04100
O227        O  0.72680450  0.02366548  0.44729952    -0.76400
O228        O  0.75285889  0.08018894  0.49213896    -0.76600
C229        C  0.74096151  0.10264579  0.48673959     1.04000
O230        O  0.71126485  0.06248381  0.06123160    -0.83900
O231        O  0.63589451  0.00828906  0.05369765    -0.81000
C232        C  0.60630907  0.98452262  0.03875140     0.99600
O233        O  0.60270662  0.98501322  0.00656143    -0.81000
O234        O  0.63769060  0.94906994  0.49736989    -0.83600
C235        C  0.66068675  0.94112898  0.00912469     1.04000
O236        O  0.69518053  0.96498508  0.00482919    -0.76400
O237        O  0.72458147  0.02003178  0.04985661    -0.76600
C238        C  0.72192386  0.04108187  0.07114132     1.04000
Cr239      Cr  0.67266004  0.05155559  0.02618734     1.93700
Cr240      Cr  0.64197538  0.99280569  0.47426636     1.93200
Cr241      Cr  0.72321516  0.02369807  0.49872335     1.39100
O242        O  0.68085024  0.02362387  0.49997448    -1.21700
O243        O  0.85045452  0.26236357  0.34374510    -0.83900
O244        O  0.83797738  0.24690287  0.41458347    -0.81000
C245        C  0.84438434  0.27527862  0.43155147     0.99500
O246        O  0.82560785  0.29077389  0.42617338    -0.81000
O247        O  0.77858515  0.31098488  0.39364635    -0.83600
C248        C  0.79204880  0.32927474  0.36602900     1.04100
O249        O  0.79648480  0.31381748  0.33991158    -0.76400
O250        O  0.81480681  0.26739771  0.30492130    -0.76600
C251        C  0.84577314  0.27132608  0.31385119     1.04000
O252        O  0.78572959  0.19402108  0.32861204    -0.83900
O253        O  0.77066507  0.18209264  0.39963679    -0.81000
C254        C  0.76129651  0.18682319  0.42934960     0.99600
O255        O  0.76401903  0.21743544  0.43767636    -0.81000
O256        O  0.71828434  0.23598522  0.40159441    -0.83600
C257        C  0.70273882  0.24029204  0.37545695     1.04000
O258        O  0.72098571  0.25353249  0.34780725    -0.76400
O259        O  0.74133113  0.20581820  0.31753958    -0.76600
C260        C  0.75634795  0.18651164  0.31274931     1.04000
Cr261      Cr  0.80873162  0.22388309  0.37154710     1.93700
Cr262      Cr  0.77266792  0.26258153  0.41107083     1.93200
Cr263      Cr  0.76967182  0.25913089  0.33124936     1.39100
O264        O  0.78368292  0.24861494  0.37132840    -1.21700
O265        O  0.80576161  0.45005769  0.35099930    -0.83900
O266        O  0.87446327  0.49935345  0.32923011    -0.81000
C267        C  0.90931136  0.51846098  0.33067689     0.99500
O268        O  0.92743862  0.50310794  0.33786122    -0.81000
O269        O  0.91552495  0.51350892  0.40418541    -0.83600
C270        C  0.90095424  0.50792242  0.43340262     1.04100
O271        O  0.87682876  0.47553098  0.44379806    -0.76400
O272        O  0.81689418  0.46209298  0.40624650    -0.76600
C273        C  0.80476813  0.46687130  0.37797122     1.04000
O274        O  0.82260908  0.38902853  0.33927134    -0.83900
O275        O  0.88888141  0.43851941  0.31168179    -0.81000
C276        C  0.91085287  0.42934473  0.32519973     0.99600
O277        O  0.91929270  0.43458830  0.35651135    -0.81000
O278        O  0.91830115  0.45069239  0.42425223    -0.83600
C279        C  0.89864004  0.41630505  0.42792063     1.04000
O280        O  0.86402253  0.40086226  0.42398369    -0.76400
O281        O  0.80068253  0.38554260  0.39135289    -0.76600
C282        C  0.80512440  0.36982869  0.36528176     1.04000
Cr283      Cr  0.84863976  0.44429693  0.33517806     1.93700
Cr284      Cr  0.91707068  0.47391294  0.38049493     1.93200
Cr285      Cr  0.84091771  0.43184265  0.41419187     1.39100
O286        O  0.86833813  0.44978164  0.37657596    -1.21700
O287        O  0.07054838  0.76099678  0.24959560    -0.83900
O288        O  0.01315884  0.73390109  0.20511893    -0.81000
C289        C  0.99746858  0.70877076  0.18287266     0.99500
O290        O  0.98298270  0.67510074  0.19082948    -0.81000
O291        O  0.03073056  0.65127847  0.21074765    -0.83600
C292        C  0.05175114  0.64508702  0.22938860     1.04100
O293        O  0.04911023  0.64506735  0.26152118    -0.76400
O294        O  0.08889533  0.72000162  0.25659730    -0.76600
C295        C  0.09319355  0.74951291  0.24314834     1.04000
O296        O  0.01224912  0.73377123  0.30765169    -0.83900
O297        O  0.95822595  0.70315178  0.26238715    -0.81000
C298        C  0.93488353  0.66851163  0.26572522     0.99600
O299        O  0.94108176  0.64425852  0.25332060    -0.81000
O300        O  0.98185686  0.61423697  0.26895474    -0.83600
C301        C  0.98112419  0.61935417  0.30095732     1.04000
O302        O  0.00500672  0.64959980  0.31504314    -0.76400
O303        O  0.05848305  0.72638100  0.31860472    -0.76600
C304        C  0.03471575  0.73371574  0.32884041     1.04000
Cr305      Cr  0.01407565  0.73025225  0.25633754     1.93700
Cr306      Cr  0.98645418  0.64935856  0.23240072     1.93200
Cr307      Cr  0.04771643  0.68559627  0.28614771     1.39100
O308        O  0.01589043  0.68890027  0.25777655    -1.21700
O309        O  0.08137846  0.71177059  0.49862337    -0.83900
O310        O  0.03823653  0.64003751  0.01778551    -0.81000
C311        C  0.04171709  0.64802529  0.04948292     0.99500
O312        O  0.01892678  0.65482019  0.06463921    -0.81000
O313        O  0.96647715  0.67838000  0.07048081    -0.83600
C314        C  0.99075097  0.71011991  0.07965350     1.04100
O315        O  0.01282226  0.73221352  0.05763136    -0.76400
O316        O  0.06505906  0.75371595  0.01002045    -0.76600
C317        C  0.08773952  0.74185212  0.01145649     1.04000
O318        O  0.03796847  0.70120723  0.43875622    -0.83900
O319        O  0.98828250  0.62969016  0.46000590    -0.81000
C320        C  0.96755096  0.60276465  0.47941144     0.99600
O321        O  0.97217058  0.60559918  0.51135520    -0.81000
O322        O  0.93234345  0.63989902  0.01028904    -0.83600
C323        C  0.92991852  0.66705970  0.49643236     1.04000
O324        O  0.95413623  0.70169499  0.50084017    -0.76400
O325        O  0.01070900  0.73171902  0.45439715    -0.76600
C326        C  0.02544316  0.72197971  0.43165959     1.04000
Cr327      Cr  0.03449413  0.67168604  0.47988397     1.93700
Cr328      Cr  0.97482760  0.64719485  0.03776297     1.93200
Cr329      Cr  0.00891829  0.72546979  0.00624775     1.39100
O330        O  0.00565570  0.68162285  0.00783223    -1.21700
O331        O  0.51463135  0.43354127  0.35347364    -0.83900
O332        O  0.52930599  0.44963487  0.42138420    -0.81000
C333        C  0.51404564  0.41525202  0.42507602     0.99500
O334        O  0.53326932  0.40007194  0.42312717    -0.81000
O335        O  0.58249908  0.38520617  0.39377100    -0.83600
C336        C  0.56279689  0.36889800  0.36734635     1.04100
O337        O  0.56522784  0.38773718  0.34096757    -0.76400
O338        O  0.55078355  0.43705390  0.31039163    -0.76600
C339        C  0.51892252  0.42819372  0.32249505     1.04000
O340        O  0.57729697  0.50206615  0.33592987    -0.83900
O341        O  0.59671332  0.51298373  0.40303505    -0.81000
C342        C  0.60340407  0.50777938  0.43327530     0.99600
O343        O  0.59456980  0.47552417  0.44422322    -0.81000
O344        O  0.64278480  0.46283490  0.40954145    -0.83600
C345        C  0.66079516  0.46652548  0.38223142     1.04000
O346        O  0.64365621  0.44831340  0.35532574    -0.76400
O347        O  0.62657617  0.49784064  0.32989965    -0.76600
C348        C  0.61128415  0.51707490  0.32964129     1.04000
Cr349      Cr  0.55593124  0.47303222  0.37839480     1.93700
Cr350      Cr  0.58797371  0.43169681  0.41549000     1.93200
Cr351      Cr  0.59587478  0.44286439  0.33641472     1.39100
O352        O  0.58016584  0.44895840  0.37670401    -1.21700
O353        O  0.27118226  0.33800513  0.23677638    -0.83900
O354        O  0.29664795  0.30905369  0.19219599    -0.81000
C355        C  0.32020283  0.31010973  0.17163586     0.99500
O356        O  0.35162315  0.31887068  0.18259104    -0.81000
O357        O  0.37358527  0.39485443  0.18684518    -0.83600
C358        C  0.37880069  0.42445558  0.20103077     1.04100
O359        O  0.38418532  0.42941054  0.23309767    -0.76400
O360        O  0.31241558  0.39702359  0.24750650    -0.76600
C361        C  0.28239812  0.37251849  0.23391321     1.04000
O362        O  0.29478495  0.30799039  0.29504445    -0.83900
O363        O  0.32697198  0.28275507  0.25093000    -0.81000
C364        C  0.36137360  0.29457864  0.25753601     0.99600
O365        O  0.38702929  0.32513826  0.24545264    -0.81000
O366        O  0.42194593  0.40049321  0.24150373    -0.83600
C367        C  0.42382536  0.40059558  0.27372872     1.04000
O368        O  0.39564436  0.39302169  0.29162919    -0.76400
O369        O  0.32304912  0.36656167  0.31005464    -0.76600
C370        C  0.30406138  0.33274746  0.31765579     1.04000
Cr371      Cr  0.30063118  0.31228066  0.24373407     1.93700
Cr372      Cr  0.38045559  0.35942524  0.21590202     1.93200
Cr373      Cr  0.35298962  0.39333836  0.26904994     1.39100
O374        O  0.34399279  0.35444841  0.24342712    -1.21700
O375        O  0.38994643  0.32849522  0.00021200    -0.83900
O376        O  0.42026878  0.39815742  0.48312625    -0.81000
C377        C  0.41517809  0.39053602  0.45142032     0.99500
O378        O  0.38588954  0.38519281  0.43656352    -0.81000
O379        O  0.31032394  0.36346378  0.43087754    -0.83600
C380        C  0.30062870  0.33137755  0.42121052     1.04100
O381        O  0.29985598  0.30860492  0.44265572    -0.76400
O382        O  0.32959535  0.28488495  0.48906329    -0.76600
C383        C  0.36419375  0.29600698  0.48677969     1.04000
O384        O  0.35819890  0.34017607  0.06106191    -0.83900
O385        O  0.38189882  0.41160213  0.03965137    -0.81000
C386        C  0.38852844  0.43866329  0.02044371     0.99600
O387        O  0.38961553  0.43570996  0.98842552    -0.81000
O388        O  0.31600378  0.40073918  0.49228768    -0.83600
C389        C  0.28437665  0.37451703  0.00480061     1.04000
O390        O  0.27338001  0.33982567  0.00060842    -0.76400
O391        O  0.29979341  0.30885717  0.04558562    -0.76600
C392        C  0.32452813  0.31926252  0.06831777     1.04000
Cr393      Cr  0.38441264  0.36910395  0.01942480     1.93700
Cr394      Cr  0.35049291  0.39320555  0.46432552     1.93200
Cr395      Cr  0.30384414  0.31404733  0.99437824     1.39100
O396        O  0.34529805  0.35788029  0.99303994    -1.21700
O397        O  0.44182221  0.53955088  0.16464359    -0.83900
O398        O  0.42183157  0.52792867  0.09752270    -0.81000
C399        C  0.41467854  0.53309034  0.06740694     0.99500
O400        O  0.42333537  0.56528563  0.05650756    -0.81000
O401        O  0.37566275  0.57889852  0.09186500    -0.83600
C402        C  0.35830607  0.57523090  0.11968760     1.04100
O403        O  0.37593624  0.59352459  0.14625728    -0.76400
O404        O  0.39262207  0.54377695  0.17096889    -0.76600
C405        C  0.40783335  0.52447185  0.17080020     1.04000
O406        O  0.50435912  0.60776503  0.14664979    -0.83900
O407        O  0.48921630  0.59080411  0.07869138    -0.81000
C408        C  0.50462063  0.62511497  0.07447673     0.99600
O409        O  0.48552422  0.64050376  0.07660587    -0.81000
O410        O  0.43649133  0.65591979  0.10648067    -0.83600
C411        C  0.45658485  0.67235090  0.13259084     1.04000
O412        O  0.45439641  0.65380311  0.15914375    -0.76400
O413        O  0.46843019  0.60435525  0.18989554    -0.76600
C414        C  0.50015575  0.61325036  0.17764726     1.04000
Cr415      Cr  0.46285638  0.56805977  0.12195664     1.93700
Cr416      Cr  0.43060274  0.60935854  0.08502530     1.93200
Cr417      Cr  0.42354879  0.59873072  0.16425048     1.39100
O418        O  0.43871395  0.59225263  0.12375696    -1.21700
O419        O  0.74794294  0.70405205  0.49577172    -0.83900
O420        O  0.72242978  0.73621788  0.45121833    -0.81000
C421        C  0.69826224  0.72401846  0.42782037     0.99500
O422        O  0.66466933  0.70163602  0.43429340    -0.81000
O423        O  0.63881096  0.63069331  0.45754874    -0.83600
C424        C  0.63125219  0.60394437  0.47752652     1.04100
O425        O  0.63063285  0.60819206  0.50930578    -0.76400
O426        O  0.70421029  0.64214574  0.00404217    -0.76600
C427        C  0.73643176  0.66942602  0.49041556     1.04000
O428        O  0.71708937  0.73360441  0.05363757    -0.83900
O429        O  0.68680652  0.75539052  0.00625512    -0.81000
C430        C  0.65208072  0.74335706  0.00809731     0.99600
O431        O  0.63264378  0.71627553  0.49367017    -0.81000
O432        O  0.59861527  0.64227201  0.01479390    -0.83600
C433        C  0.60417341  0.65051547  0.04643823     1.04000
O434        O  0.63415901  0.65704669  0.06100232    -0.76400
O435        O  0.71121218  0.68057293  0.06451221    -0.76600
C436        C  0.71814016  0.71157327  0.07483150     1.04000
Cr437      Cr  0.71781171  0.72997430  0.50233169     1.93700
Cr438      Cr  0.63755260  0.67458799  0.47626466     1.93200
Cr439      Cr  0.66979190  0.64921322  0.03304220     1.39100
O440        O  0.67637733  0.68605579  0.50302094    -1.21700
O441        O  0.63347289  0.71634637  0.25254290    -0.83900
O442        O  0.59779715  0.64089984  0.25811357    -0.81000
C443        C  0.59486052  0.64049607  0.22599525     0.99500
O444        O  0.62230999  0.64773593  0.20725548    -0.81000
O445        O  0.69338473  0.67326912  0.18590383    -0.83600
C446        C  0.71330168  0.70710466  0.17850482     1.04100
O447        O  0.72444944  0.73170825  0.20142703    -0.76400
O448        O  0.69365422  0.75787271  0.24581039    -0.76600
C449        C  0.65914806  0.74653830  0.23988211     1.04000
O450        O  0.67079316  0.72369467  0.31425379    -0.83900
O451        O  0.64764063  0.64710814  0.31109813    -0.81000
C452        C  0.64153267  0.61704053  0.29718498     0.99600
O453        O  0.63553226  0.61153752  0.26516975    -0.81000
O454        O  0.70616105  0.64209864  0.24738150    -0.83600
C455        C  0.73667653  0.66595591  0.26062712     1.04000
O456        O  0.74815832  0.70066909  0.25888720    -0.76400
O457        O  0.72472997  0.73123364  0.30403364    -0.76600
C458        C  0.70213042  0.73170321  0.32479327     1.04000
Cr459      Cr  0.64044965  0.68232484  0.28213674     1.93700
Cr460      Cr  0.66526082  0.64682326  0.22797903     1.93200
Cr461      Cr  0.71954631  0.72761694  0.25263981     1.39100
O462        O  0.67579515  0.68608349  0.25371125    -1.21700
O463        O  0.23236032  0.41521155  0.07850568    -0.83900
O464        O  0.24887796  0.42020692  0.14924444    -0.81000
C465        C  0.26058639  0.43587626  0.17815887     0.99500
O466        O  0.25933481  0.46457738  0.18619543    -0.81000
O467        O  0.30312869  0.52982534  0.14889775    -0.83600
C468        C  0.31755842  0.54769142  0.12133869     1.04100
O469        O  0.29814657  0.54061530  0.09431383    -0.76400
O470        O  0.27510945  0.47200503  0.06446761    -0.76600
C471        C  0.26077663  0.43723907  0.06118280     1.04000
O472        O  0.16779253  0.41852454  0.09446899    -0.83900
O473        O  0.18182406  0.41706647  0.16521818    -0.81000
C474        C  0.17658034  0.43941201  0.18272693     0.99600
O475        O  0.19660796  0.47408419  0.17791213    -0.81000
O476        O  0.24136756  0.54167962  0.14401618    -0.83600
C477        C  0.22763850  0.54644622  0.11672275     1.04000
O478        O  0.22316449  0.52669899  0.09031139    -0.76400
O479        O  0.20174765  0.46061445  0.05552540    -0.76600
C480        C  0.17118184  0.43292876  0.06501264     1.04000
Cr481      Cr  0.21039915  0.42315162  0.12169886     1.93700
Cr482      Cr  0.24883900  0.49993645  0.16033587     1.93200
Cr483      Cr  0.24830657  0.49764462  0.08012848     1.39100
O484        O  0.23592105  0.47366995  0.12077640    -1.21700
O485        O  0.61158542  0.78089399  0.15431861    -0.83900
O486        O  0.61341031  0.79340294  0.08271474    -0.81000
C487        C  0.59027394  0.76456898  0.06645870     0.99500
O488        O  0.55579227  0.75020887  0.07155248    -0.81000
O489        O  0.48881320  0.73122172  0.10399535    -0.83600
C490        C  0.48453723  0.71294191  0.13143971     1.04100
O491        O  0.50534000  0.72855632  0.15716163    -0.76400
O492        O  0.57042424  0.77585413  0.19259309    -0.76600
C493        C  0.59764916  0.77208862  0.18422362     1.04000
O494        O  0.61561737  0.84960207  0.16714514    -0.83900
O495        O  0.61291251  0.85960344  0.09554490    -0.81000
C496        C  0.59804455  0.85456812  0.06609087     0.99600
O497        O  0.56957600  0.82370115  0.05834833    -0.81000
O498        O  0.50560269  0.80647262  0.09505125    -0.83600
C499        C  0.48503794  0.80127572  0.12090707     1.04000
O500        O  0.48972661  0.78770548  0.14842254    -0.76400
O501        O  0.55877362  0.83659304  0.17869672    -0.76600
C502        C  0.59350236  0.85661357  0.18310299     1.04000
Cr503      Cr  0.60836605  0.81837822  0.12500523     1.93700
Cr504      Cr  0.53236991  0.77923141  0.08591784     1.93200
Cr505      Cr  0.53337730  0.78321516  0.16551969     1.39100
O506        O  0.55806153  0.79362174  0.12545668    -1.21700
O507        O  0.78650999  0.62404849  0.33346648    -0.83900
O508        O  0.77161415  0.62238308  0.40437639    -0.81000
C509        C  0.76030038  0.60771256  0.43375009     0.99500
O510        O  0.76228962  0.57969183  0.44283545    -0.81000
O511        O  0.71747854  0.51334331  0.40818544    -0.83600
C512        C  0.70173982  0.49398129  0.38164578     1.04100
O513        O  0.72002005  0.49930219  0.35408369    -0.76400
O514        O  0.74349626  0.56692539  0.32075165    -0.76600
C515        C  0.75816722  0.60162176  0.31636823     1.04000
O516        O  0.85090846  0.62119494  0.34884809    -0.83900
O517        O  0.83949825  0.62615611  0.41977927    -0.81000
C518        C  0.84523917  0.60431948  0.43761145     0.99600
O519        O  0.82475274  0.56956305  0.43407696    -0.81000
O520        O  0.77937749  0.50102241  0.40378774    -0.83600
C521        C  0.79125310  0.49393062  0.37650481     1.04000
O522        O  0.79401656  0.51139146  0.34888047    -0.76400
O523        O  0.81627673  0.57677031  0.31189952    -0.76600
C524        C  0.84682262  0.60539924  0.32001085     1.04000
Cr525      Cr  0.80936609  0.61795683  0.37669170     1.93700
Cr526      Cr  0.77206729  0.54325487  0.41818270     1.93200
Cr527      Cr  0.76985789  0.54124173  0.33786810     1.39100
O528        O  0.78372887  0.56737909  0.37755915    -1.21700
C529        C  0.61162541  0.75575454  0.21012565    -0.15000
C530        C  0.64800538  0.76753024  0.21616198    -0.30200
H531        H  0.59049630  0.73343581  0.22583137     0.14000
H532        H  0.66944958  0.79107662  0.20186661     0.14600
C533        C  0.74155974  0.61601897  0.29106987    -0.15000
C534        C  0.75769848  0.65223739  0.28104340    -0.30200
H535        H  0.71424870  0.59593658  0.28112313     0.14000
H536        H  0.78483910  0.67253618  0.29113576     0.14600
C537        C  0.70992340  0.73753461  0.36121751    -0.11800
C538        C  0.70853471  0.73481315  0.39234324    -0.13400
C539        C  0.72385403  0.71937330  0.11136068    -0.11800
C540        C  0.72212182  0.71728237  0.14258971    -0.13400
C541        C  0.63863687  0.76437111  0.02840577    -0.15000
C542        C  0.60343310  0.74737920  0.04091115    -0.30200
H543        H  0.65880196  0.79230635  0.03683305     0.14000
H544        H  0.58339058  0.71939509  0.03252382     0.14600
C545        C  0.75715249  0.65799171  0.46680734    -0.15000
C546        C  0.74298966  0.62175559  0.45826793    -0.30200
H547        H  0.78273826  0.67925884  0.45484911     0.14000
H548        H  0.71820566  0.60057127  0.47138189     0.14600
C549        C  0.56052517  0.63272290  0.21165086    -0.11800
C550        C  0.53157784  0.62564972  0.19908754    -0.13400
C551        C  0.57473584  0.65112774  0.06422303    -0.11800
C552        C  0.54387664  0.64502346  0.06982163    -0.13400
C553        C  0.39420100  0.47267927  0.03386885    -0.11800
C554        C  0.40088804  0.50194666  0.04540467    -0.13400
C555        C  0.26299478  0.38654665  0.02699143    -0.15000
C556        C  0.27794529  0.42276214  0.03660401    -0.30200
H557        H  0.23633513  0.36552113  0.03742083     0.14000
H558        H  0.30475228  0.44340859  0.02609128     0.14600
C559        C  0.38040627  0.45433328  0.18224796    -0.11800
C560        C  0.38784400  0.48540809  0.17589959    -0.13400
C561        C  0.27691284  0.42159367  0.20341204    -0.15000
C562        C  0.26187164  0.38518951  0.21163946    -0.30200
H563        H  0.30184370  0.44235231  0.21661865     0.14000
H564        H  0.23626377  0.36450489  0.19928697     0.14600
C565        C  0.31481611  0.30824673  0.10388730    -0.11800
C566        C  0.31323312  0.30501493  0.13500120    -0.13400
C567        C  0.29461450  0.32315548  0.35359604    -0.11800
C568        C  0.29348312  0.32258013  0.38489115    -0.13400
C569        C  0.48727005  0.41584721  0.30114162    -0.11800
C570        C  0.45802473  0.40860410  0.28892994    -0.13400
C571        C  0.47486881  0.39498166  0.42877073    -0.11800
C572        C  0.44411972  0.38908925  0.43390743    -0.13400
C573        C  0.63126247  0.55601387  0.32359380    -0.11800
C574        C  0.63927726  0.58709249  0.31641122    -0.13400
C575        C  0.61711195  0.53910092  0.45506308    -0.11800
C576        C  0.62439011  0.56900448  0.46541629    -0.13400
C577        C  0.89681054  0.65497224  0.47363430    -0.15000
C578        C  0.87617718  0.61897207  0.46310074    -0.30200
H579        H  0.89123273  0.67580306  0.46324403     0.14000
H580        H  0.88229196  0.59854439  0.47361302     0.14600
C581        C  0.99655413  0.71800220  0.14710023    -0.11800
C582        C  0.99461806  0.71894863  0.11596239    -0.13400
C583        C  0.03120375  0.73792080  0.36532428    -0.11800
C584        C  0.02790072  0.73383689  0.39630143    -0.13400
C585        C  0.90080224  0.65573940  0.28717295    -0.15000
C586        C  0.87806720  0.61935114  0.29503988    -0.30200
H587        H  0.89624775  0.67649149  0.29928990     0.14000
H588        H  0.88174317  0.59848615  0.28196036     0.14600
C589        C  0.91632585  0.53907601  0.45520118    -0.11800
C590        C  0.93860390  0.56879077  0.46632749    -0.13400
C591        C  0.92941475  0.55756986  0.32590471    -0.11800
C592        C  0.95307111  0.58893900  0.31978570    -0.13400
C593        C  0.64872109  0.90815878  0.03219427    -0.15000
C594        C  0.61231573  0.88499429  0.04005638    -0.30200
H595        H  0.66985122  0.90481027  0.04520800     0.14000
H596        H  0.59128526  0.88760628  0.02597437     0.14600
C597        C  0.74593685  0.15648002  0.45517445    -0.15000
C598        C  0.76080518  0.13509069  0.46295723    -0.30200
H599        H  0.72188551  0.15274680  0.46943091     0.14000
H600        H  0.78579786  0.13975273  0.44985071     0.14600
C601        C  0.71035067  0.00670948  0.38921984    -0.11800
C602        C  0.70949389  0.00672681  0.35796414    -0.13400
C603        C  0.72577457  0.03856827  0.13886564    -0.11800
C604        C  0.72802419  0.03933814  0.10763996    -0.13400
C605        C  0.60789625  0.88827974  0.20758741    -0.15000
C606        C  0.64354679  0.90814360  0.21904940    -0.30200
H607        H  0.58775254  0.89561342  0.21646603     0.14000
H608        H  0.66404910  0.90131876  0.21016859     0.14600
C609        C  0.75587709  0.13626586  0.27674166    -0.15000
C610        C  0.73928328  0.15503388  0.28809639    -0.30200
H611        H  0.78362961  0.14417013  0.28559783     0.14000
H612        H  0.71135798  0.14665562  0.27935953     0.14600
C613        C  0.61750896  0.10431361  0.30878871    -0.11800
C614        C  0.62654799  0.08251575  0.30040648    -0.13400
C615        C  0.62752707  0.10910232  0.44123049    -0.11800
C616        C  0.63382448  0.08614223  0.45218880    -0.13400
C617        C  0.90013982  0.27492245  0.28272904    -0.15000
C618        C  0.87657074  0.28761253  0.28858078    -0.30200
H619        H  0.89656866  0.25070309  0.29655768     0.14000
H620        H  0.87908363  0.31061783  0.27334799     0.14600
C621        C  0.14647821  0.42491211  0.20912409    -0.15000
C622        C  0.12686154  0.38884215  0.21963440    -0.30200
H623        H  0.13951219  0.44476490  0.21956087     0.14000
H624        H  0.13336515  0.36874931  0.20897601     0.14600
C625        C  0.95225362  0.40931197  0.29342221    -0.11800
C626        C  0.93036727  0.41673888  0.30503358    -0.13400
C627        C  0.99042773  0.30597320  0.10792693    -0.11800
C628        C  0.99125036  0.30511627  0.13917056    -0.13400
C629        C  0.02373861  0.31760715  0.38929392    -0.11800
C630        C  0.02490208  0.31984115  0.35808474    -0.13400
C631        C  0.87378539  0.29011983  0.45833458    -0.15000
C632        C  0.89084684  0.27180484  0.46972667    -0.30200
H633        H  0.88211773  0.31746931  0.46851318     0.14000
H634        H  0.88283458  0.24459285  0.45937614     0.14600
C635        C  0.13929278  0.41903498  0.04087808    -0.15000
C636        C  0.11595373  0.38279543  0.03293256    -0.30200
H637        H  0.13634593  0.44025378  0.02754259     0.14000
H638        H  0.11970788  0.36148290  0.04500251     0.14600
C639        C  0.94081229  0.38860762  0.44002612    -0.11800
C640        C  0.91732569  0.39623881  0.43377493    -0.13400
C641        C  0.09593101  0.64146464  0.07287046    -0.11800
C642        C  0.07166817  0.64794942  0.06676473    -0.13400
C643        C  0.07924570  0.63861700  0.21528265    -0.11800
C644        C  0.10136466  0.63131224  0.20392474    -0.13400
C645        C  0.07752424  0.45739201  0.18964075    -0.11800
C646        C  0.10049960  0.48862847  0.18278272    -0.13400
C647        C  0.09050434  0.49777743  0.05254553    -0.11800
C648        C  0.06831176  0.46841500  0.04059729    -0.13400
C649        C  0.40853609  0.28674094  0.28916849    -0.15000
C650        C  0.37231575  0.27356564  0.28127480    -0.30200
H651        H  0.42995767  0.31067800  0.27524658     0.14000
H652        H  0.35074509  0.24860598  0.29384599     0.14600
C653        C  0.37712694  0.27427656  0.46664437    -0.15000
C654        C  0.41320218  0.28995035  0.45654810    -0.30200
H655        H  0.35649263  0.24712142  0.45682551     0.14000
H656        H  0.43360615  0.31720869  0.46635725     0.14600
C657        C  0.14478109  0.75403243  0.20805521    -0.15000
C658        C  0.12428979  0.76925698  0.21791837    -0.30200
H659        H  0.14102271  0.72940748  0.22123526     0.14000
H660        H  0.12884200  0.79467758  0.20580839     0.14600
C661        C  0.14303382  0.74704444  0.04027974    -0.15000
C662        C  0.12347656  0.76330180  0.03037038    -0.30200
H663        H  0.13481975  0.71934082  0.03104825     0.14000
H664        H  0.13146943  0.79090861  0.03971584     0.14600
C665        C  0.41129547  0.15341848  0.28711147    -0.15000
C666        C  0.37516963  0.13273523  0.27701719    -0.30200
H667        H  0.43139228  0.14656044  0.27724434     0.14000
H668        H  0.35477283  0.13912671  0.28695998     0.14600
C669        C  0.26365170  0.90455912  0.21822080    -0.15000
C670        C  0.28044203  0.88572222  0.20740943    -0.30200
H671        H  0.23643953  0.89716082  0.20836201     0.14000
H672        H  0.30774541  0.89344368  0.21727773     0.14600
C673        C  0.44625184  0.08610355  0.30670725    -0.11800
C674        C  0.47629595  0.10923065  0.31662807    -0.13400
C675        C  0.31010379  0.03324563  0.14029520    -0.11800
C676        C  0.31000586  0.03463791  0.10912929    -0.13400
C677        C  0.29067470  0.99983830  0.35908653    -0.11800
C678        C  0.29110056  0.00027354  0.39032948    -0.13400
C679        C  0.37149161  0.13106169  0.46421532    -0.15000
C680        C  0.40769495  0.15301091  0.45496956    -0.30200
H681        H  0.35037028  0.13537981  0.45253038     0.14000
H682        H  0.42878281  0.14940977  0.46775028     0.14600
C683        C  0.26027506  0.90652502  0.03262796    -0.15000
C684        C  0.27424963  0.88420431  0.03950478    -0.30200
H685        H  0.23565670  0.90234577  0.04611088     0.14000
H686        H  0.29789944  0.88748834  0.02485927     0.14600
C687        C  0.48297904  0.10512271  0.44084734    -0.11800
C688        C  0.45130850  0.08247081  0.44678171    -0.13400
C689        C  0.54504241  0.93522384  0.06750554    -0.11800
C690        C  0.57523890  0.95726594  0.05711164    -0.13400
C691        C  0.56574974  0.95315670  0.19865874    -0.11800
C692        C  0.53475822  0.92892720  0.19240732    -0.13400
C693        C  0.39319514  0.92780487  0.19536456    -0.11800
C694        C  0.38854843  0.95180457  0.20655626    -0.13400
C695        C  0.40333256  0.93989959  0.06152707    -0.11800
C696        C  0.39297124  0.96082569  0.05348261    -0.13400
O697        O  0.43973784  0.81370257  0.64620569    -0.83900
O698        O  0.47932686  0.87646290  0.68110676    -0.81000
C699        C  0.49600664  0.91065004  0.68668835     0.99500
O700        O  0.47991694  0.92811001  0.68028468    -0.81000
O701        O  0.50957625  0.93165355  0.61649393    -0.83600
C702        C  0.51151868  0.92235281  0.58617028     1.04100
O703        O  0.48254750  0.90078795  0.56847291    -0.76400
O704        O  0.45670355  0.83244702  0.59284825    -0.76600
C705        C  0.45883367  0.81648019  0.61962407     1.04000
O706        O  0.37397907  0.82353642  0.65160577    -0.83900
O707        O  0.41196116  0.88459754  0.68972623    -0.81000
C708        C  0.40514888  0.90862632  0.67660711     0.99600
O709        O  0.41831833  0.92377316  0.64809417    -0.81000
O710        O  0.45438030  0.94064467  0.58618900    -0.83600
C711        C  0.42245837  0.92331877  0.57376418     1.04000
O712        O  0.40541674  0.88854733  0.57317575    -0.76400
O713        O  0.37844382  0.81975806  0.59530602    -0.76600
C714        C  0.35900997  0.81491174  0.62223999     1.04000
Cr715      Cr  0.42692279  0.85099541  0.66481182     1.93700
Cr716      Cr  0.46400241  0.92785176  0.63248253     1.93200
Cr717      Cr  0.43113561  0.86098847  0.58505538     1.39100
O718        O  0.44031630  0.87912300  0.62727083    -1.21700
O719        O  0.27005539  0.96248760  0.50490531    -0.83900
O720        O  0.29491507  0.01730339  0.55060734    -0.81000
C721        C  0.31886944  0.03753664  0.57239889     0.99500
O722        O  0.35189765  0.05859462  0.56342557    -0.81000
O723        O  0.37725893  0.00926538  0.55245446    -0.83600
C724        C  0.38513989  0.98770463  0.53668062     1.04100
O725        O  0.38606344  0.98729066  0.50422522    -0.76400
O726        O  0.31141265  0.94542273  0.99746203    -0.76600
C727        C  0.28182285  0.94000019  0.51005197     1.04000
O728        O  0.29615088  0.02051916  0.94875174    -0.83900
O729        O  0.32669933  0.07537054  0.99480571    -0.81000
C730        C  0.36115966  0.09852781  0.98901945     0.99600
O731        O  0.38513157  0.09381666  0.49990441    -0.81000
O732        O  0.41889016  0.05265941  0.99605257    -0.83600
C733        C  0.41767775  0.05474495  0.96387051     1.04000
O734        O  0.38882127  0.03245432  0.94733667    -0.76400
O735        O  0.31442492  0.98201643  0.93478724    -0.76600
C736        C  0.30042892  0.00120899  0.92658973     1.04000
Cr737      Cr  0.29965061  0.01876603  0.49928452     1.93700
Cr738      Cr  0.38009049  0.05146692  0.52611238     1.93200
Cr739      Cr  0.34929776  0.98888060  0.97263526     1.39100
O740        O  0.34259333  0.01986319  0.49934615    -1.21700
O741        O  0.30936315  0.94272841  0.75448023    -0.83900
O742        O  0.38350298  0.98278963  0.75204522    -0.81000
C743        C  0.37998672  0.97824284  0.72002203     0.99500
O744        O  0.37440647  0.99988300  0.70166291    -0.81000
O745        O  0.35248909  0.04973772  0.68356506    -0.83600
C746        C  0.31880205  0.03357203  0.67572925     1.04100
O747        O  0.29409055  0.01660410  0.69814135    -0.76400
O748        O  0.26829194  0.96039371  0.74415399    -0.76600
C749        C  0.27963017  0.93716093  0.74071943     1.04000
O750        O  0.30838306  0.97788694  0.81515122    -0.83900
O751        O  0.38356244  0.03045570  0.80548887    -0.81000
C752        C  0.41296962  0.05305089  0.78964769     0.99600
O753        O  0.41617001  0.04981293  0.75777109    -0.81000
O754        O  0.38513480  0.09055204  0.74516848    -0.83600
C755        C  0.36101500  0.09701460  0.75751251     1.04000
O756        O  0.32616654  0.07358860  0.75451779    -0.76400
O757        O  0.29451823  0.01939375  0.80102876    -0.76600
C758        C  0.29703963  0.99915973  0.82341538     1.04000
Cr759      Cr  0.34580797  0.98616487  0.77987164     1.93700
Cr760      Cr  0.37891251  0.04510347  0.72370558     1.93200
Cr761      Cr  0.29863178  0.01717279  0.74959222     1.39100
O762        O  0.34040686  0.01619648  0.75074720    -1.21700
O763        O  0.23325562  0.84664432  0.66606999    -0.83900
O764        O  0.24902233  0.85865487  0.59532077    -0.81000
C765        C  0.25973968  0.85457655  0.56601618     0.99500
O766        O  0.25795528  0.82440742  0.55771017    -0.81000
O767        O  0.30366710  0.80500257  0.59340312    -0.83600
C768        C  0.31833935  0.80122446  0.62047154     1.04100
O769        O  0.29935470  0.78881162  0.64783574    -0.76400
O770        O  0.27743541  0.83506412  0.67890391    -0.76600
C771        C  0.26178639  0.85393130  0.68314984     1.04000
O772        O  0.16933298  0.77811577  0.65158513    -0.83900
O773        O  0.18210565  0.79326340  0.58056775    -0.81000
C774        C  0.17605991  0.76490045  0.56387313     0.99600
O775        O  0.19615141  0.75071371  0.56829525    -0.81000
O776        O  0.24266947  0.73033005  0.60046542    -0.83600
C777        C  0.22936360  0.71205891  0.62803744     1.04000
O778        O  0.22493962  0.72743283  0.65429656    -0.76400
O779        O  0.20485871  0.77238765  0.68997985    -0.76600
C780        C  0.17404812  0.76894750  0.68143357     1.04000
Cr781      Cr  0.21113871  0.81662183  0.62336213     1.93700
Cr782      Cr  0.24893081  0.77898687  0.58381180     1.93200
Cr783      Cr  0.25044184  0.78192573  0.66391198     1.39100
O784        O  0.23698081  0.79255149  0.62366329    -1.21700
O785        O  0.40605716  0.24575450  0.91553967    -0.86300
O786        O  0.40802412  0.25930635  0.84418915    -0.81000
C787        C  0.42234551  0.26925735  0.81450567     0.99500
O788        O  0.44961443  0.26581392  0.80573360    -0.81000
O789        O  0.51510645  0.31182929  0.84100022    -0.83600
C790        C  0.53512433  0.32759869  0.86716526     1.04100
O791        O  0.53058272  0.30933300  0.89462817    -0.76400
O792        O  0.46352950  0.28847421  0.92759445    -0.76600
C793        C  0.42897965  0.27435681  0.93214111     1.04000
O794        O  0.40713812  0.17997648  0.90184572    -0.83900
O795        O  0.40350754  0.19048529  0.83036340    -0.81000
C796        C  0.42530943  0.18374873  0.81353701     0.99600
O797        O  0.46011026  0.20393257  0.81741753    -0.81000
O798        O  0.52875412  0.25105998  0.84791102    -0.83600
C799        C  0.53499508  0.23867061  0.87537280     1.04000
O800        O  0.51642275  0.23500734  0.90235930    -0.76400
O801        O  0.45141874  0.21506720  0.93873498    -0.76600
C802        C  0.42272593  0.18442066  0.93088122     1.04000
Cr803      Cr  0.41141577  0.22146080  0.87291494     1.93700
Cr804      Cr  0.48611485  0.25712144  0.83190532     1.93200
Cr805      Cr  0.48786911  0.26054719  0.91197527     1.39100
O806        O  0.46184677  0.24629962  0.87230600    -1.21700
O807        O  0.19878756  0.57599544  0.58960497    -0.83900
O808        O  0.13461524  0.55972342  0.55953136    -0.81000
C809        C  0.11173395  0.52816843  0.57262808     0.99500
O810        O  0.10148989  0.52478327  0.60344118    -0.81000
O811        O  0.09901897  0.54151784  0.67066395    -0.83600
C812        C  0.11781506  0.52650620  0.67606333     1.04100
O813        O  0.15251063  0.54524014  0.67323298    -0.76400
O814        O  0.21757424  0.59218547  0.64295877    -0.76600
C815        C  0.21452128  0.57310622  0.61619402     1.04000
O816        O  0.21706597  0.65427453  0.60225721    -0.83900
O817        O  0.14994569  0.63580971  0.57669377    -0.81000
C818        C  0.11510303  0.61989759  0.57614883     0.99600
O819        O  0.09610031  0.58599626  0.58280329    -0.81000
O820        O  0.10456304  0.60814931  0.64950299    -0.83600
C821        C  0.11697550  0.61619371  0.67959652     1.04000
O822        O  0.14036793  0.60780858  0.69122713    -0.76400
O823        O  0.20243973  0.65394041  0.65662551    -0.76600
C824        C  0.21631932  0.67152693  0.62901813     1.04000
Cr825      Cr  0.17423206  0.60584025  0.58435913     1.93700
Cr826      Cr  0.10332355  0.56659661  0.62651447     1.93200
Cr827      Cr  0.17720105  0.59947510  0.66374633     1.39100
O828        O  0.15214326  0.59088031  0.62484888    -1.21700
O829        O  0.94768325  0.28121495  0.99153185    -0.83900
O830        O  0.00244660  0.30549041  0.94611165    -0.81000
C831        C  0.02532289  0.32875301  0.92526618     0.99500
O832        O  0.04739689  0.36092264  0.93527939    -0.81000
O833        O  0.99284385  0.38223269  0.94103721    -0.83600
C834        C  0.96906491  0.38780264  0.95604255     1.04100
O835        O  0.97070523  0.39345688  0.98815364    -0.76400
O836        O  0.93153498  0.32081039  0.50608518    -0.76600
C837        C  0.92451721  0.29246956  0.99029429     1.04000
O838        O  0.00247016  0.30187932  0.54953288    -0.83900
O839        O  0.05988435  0.33406029  0.50463950    -0.81000
C840        C  0.08363250  0.36873326  0.50936886     0.99600
O841        O  0.07853666  0.39676479  0.99738758    -0.81000
O842        O  0.03940554  0.42922501  0.49494369    -0.83600
C843        C  0.04320638  0.43174691  0.52698691     1.04000
O844        O  0.02299918  0.40412974  0.54578495    -0.76400
O845        O  0.97599731  0.33276297  0.56630606    -0.76600
C846        C  0.98919873  0.31249445  0.57290883     1.04000
Cr847      Cr  0.00352409  0.31032086  0.99762214     1.93700
Cr848      Cr  0.03653675  0.38967033  0.96885335     1.93200
Cr849      Cr  0.97782209  0.36151359  0.52525269     1.39100
O850        O  0.00543116  0.35363845  0.99726794    -1.21700
O851        O  0.93660898  0.32434818  0.74792520    -0.83900
O852        O  0.97750619  0.39903026  0.74820460    -0.81000
C853        C  0.97593971  0.39827184  0.78052821     0.99500
O854        O  0.99684430  0.39086637  0.79791525    -0.81000
O855        O  0.04447343  0.36585219  0.81440305    -0.83600
C856        C  0.02722191  0.33200954  0.82206933     1.04100
O857        O  0.01000195  0.30761469  0.79954292    -0.76400
O858        O  0.95373641  0.28233507  0.75429650    -0.76600
C859        C  0.93089157  0.29374000  0.75981406     1.04000
O860        O  0.96849923  0.32144166  0.68554247    -0.83900
O861        O  0.02208782  0.39695385  0.69294072    -0.81000
C862        C  0.04593289  0.42637513  0.70798959     0.99600
O863        O  0.04467645  0.43008546  0.74012578    -0.81000
O864        O  0.08437893  0.39813172  0.75181301    -0.83600
C865        C  0.09001300  0.37374006  0.73898632     1.04000
O866        O  0.06650588  0.33907741  0.74263874    -0.76400
O867        O  0.01164264  0.30906530  0.69701394    -0.76600
C868        C  0.98979155  0.31052790  0.67590145     1.04000
Cr869      Cr  0.97886516  0.36002888  0.72047247     1.93700
Cr870      Cr  0.04015865  0.39303752  0.77446926     1.93200
Cr871      Cr  0.01029728  0.31248247  0.74836668     1.39100
O872        O  0.00981073  0.35455498  0.74814197    -1.21700
O873        O  0.56424966  0.10273426  0.83156225    -0.83900
O874        O  0.59672647  0.11196773  0.89448123    -0.81000
C875        C  0.60924347  0.12458023  0.92385497     0.99500
O876        O  0.60315011  0.14830826  0.93875230    -0.81000
O877        O  0.64386905  0.21202971  0.90507005    -0.83600
C878        C  0.65993454  0.22416202  0.87651120     1.04100
O879        O  0.64150665  0.22268078  0.84980432    -0.76400
O880        O  0.61467739  0.15516632  0.82293125    -0.76600
C881        C  0.59700215  0.12044652  0.82103784     1.04000
O882        O  0.50895590  0.11119684  0.86304263    -0.83900
O883        O  0.53496674  0.10726323  0.92643713    -0.81000
C884        C  0.51995779  0.12530783  0.93465748     0.99600
O885        O  0.53784425  0.15982926  0.93167736    -0.81000
O886        O  0.57893118  0.22436234  0.90125684    -0.83600
C887        C  0.56161496  0.22478479  0.87439107     1.04000
O888        O  0.56477239  0.21134910  0.84639587    -0.76400
O889        O  0.53846647  0.14495284  0.81705026    -0.76600
C890        C  0.50859057  0.12280957  0.83334821     1.04000
Cr891      Cr  0.55280076  0.11146100  0.87878216     1.93700
Cr892      Cr  0.59048595  0.18506300  0.91677013     1.93200
Cr893      Cr  0.58934582  0.18252481  0.83656862     1.39100
O894        O  0.57794542  0.16050722  0.87730239    -1.21700
O895        O  0.74817230  0.07957612  0.75289883    -0.83900
O896        O  0.72374144  0.02516803  0.79956894    -0.81000
C897        C  0.70002388  0.00474136  0.82144832     0.99500
O898        O  0.66678638  0.98463178  0.81291085    -0.81000
O899        O  0.64313458  0.03543290  0.80091850    -0.83600
C900        C  0.63518205  0.05666271  0.78458222     1.04100
O901        O  0.63361485  0.05617777  0.75207217    -0.76400
O902        O  0.70642605  0.09601857  0.74162226    -0.76600
C903        C  0.73666747  0.10256550  0.75503212     1.04000
O904        O  0.72440123  0.02276624  0.69715314    -0.83900
O905        O  0.69221499  0.96687874  0.74323548    -0.81000
C906        C  0.65755009  0.94332856  0.73874995     0.99600
O907        O  0.63267085  0.94879781  0.75076757    -0.81000
O908        O  0.59882388  0.98861339  0.74624309    -0.83600
C909        C  0.59859439  0.98465462  0.71422654     1.04000
O910        O  0.62682181  0.00608978  0.69654086    -0.76400
O911        O  0.70016789  0.05569030  0.68078067    -0.76600
C912        C  0.71791056  0.03977615  0.67413756     1.04000
Cr913      Cr  0.71874011  0.02338576  0.74820677     1.93700
Cr914      Cr  0.63873815  0.99203835  0.77579405     1.93200
Cr915      Cr  0.66745847  0.05099494  0.71962650     1.39100
O916        O  0.67577767  0.02235288  0.74781613    -1.21700
O917        O  0.71084659  0.09702804  0.49975077    -0.83900
O918        O  0.63340557  0.05185323  0.99833458    -0.81000
C919        C  0.63576020  0.05468419  0.96617046     0.99500
O920        O  0.64217795  0.03306214  0.94873384    -0.81000
O921        O  0.66702551  0.98507804  0.93290939    -0.83600
C922        C  0.70065319  0.00312785  0.92470005     1.04100
O923        O  0.72530342  0.02090784  0.94693347    -0.76400
O924        O  0.75033501  0.07755267  0.99152465    -0.76600
C925        C  0.73830989  0.09988321  0.98584413     1.04000
O926        O  0.71445245  0.06513860  0.56220526    -0.83900
O927        O  0.63879049  0.01184999  0.55547774    -0.81000
C928        C  0.60877105  0.98837332  0.54096812     0.99600
O929        O  0.60496745  0.98830923  0.50872144    -0.81000
O930        O  0.63571060  0.94590783  0.99613206    -0.83600
C931        C  0.66266684  0.94386997  0.50957281     1.04000
O932        O  0.69717465  0.96758762  0.50508472    -0.76400
O933        O  0.72763422  0.02269403  0.55001291    -0.76600
C934        C  0.72534789  0.04373388  0.57153465     1.04000
Cr935      Cr  0.67560195  0.05474807  0.52759634     1.93700
Cr936      Cr  0.64005577  0.98973043  0.97265743     1.93200
Cr937      Cr  0.72098175  0.02102701  0.99832043     1.39100
O938        O  0.67851446  0.02068727  0.99876045    -1.21700
O939        O  0.84868220  0.26110150  0.84385596    -0.83900
O940        O  0.83620797  0.24579076  0.91471269    -0.81000
C941        C  0.84252889  0.27430088  0.93139360     0.99500
O942        O  0.82329879  0.28932783  0.92610433    -0.81000
O943        O  0.77600236  0.30906040  0.89344659    -0.83600
C944        C  0.78961440  0.32748979  0.86590663     1.04100
O945        O  0.79420303  0.31211648  0.83979609    -0.76400
O946        O  0.81297594  0.26589889  0.80491941    -0.76600
C947        C  0.84390340  0.26977473  0.81386564     1.04000
O948        O  0.78446866  0.19284350  0.82879825    -0.83900
O949        O  0.76909725  0.18053435  0.89965810    -0.81000
C950        C  0.75948863  0.18508817  0.92931568     0.99600
O951        O  0.76197235  0.21562403  0.93758727    -0.81000
O952        O  0.71616049  0.23369923  0.90110009    -0.83600
C953        C  0.70056971  0.23782058  0.87490548     1.04000
O954        O  0.71884554  0.25138586  0.84735591    -0.76400
O955        O  0.73983484  0.20419423  0.81729960    -0.76600
C956        C  0.75534503  0.18535874  0.81253914     1.04000
Cr957      Cr  0.80708088  0.22255729  0.87167811     1.93700
Cr958      Cr  0.77041044  0.26073463  0.91089527     1.93200
Cr959      Cr  0.76773780  0.25741911  0.83107981     1.39100
O960        O  0.78173895  0.24698677  0.87124248    -1.21700
O961        O  0.80423750  0.44936734  0.84976856    -0.83900
O962        O  0.87291957  0.49762774  0.82820248    -0.81000
C963        C  0.90771414  0.51685511  0.82993530     0.99500
O964        O  0.92586288  0.50194134  0.83850108    -0.81000
O965        O  0.91191488  0.51274955  0.90444910    -0.83600
C966        C  0.89758945  0.50693310  0.93383273     1.04100
O967        O  0.87334679  0.47442009  0.94392248    -0.76400
O968        O  0.81379394  0.46036876  0.90537013    -0.76600
C969        C  0.80273711  0.46589086  0.87678170     1.04000
O970        O  0.82052707  0.38741170  0.83938575    -0.83900
O971        O  0.88741119  0.43629718  0.81285466    -0.81000
C972        C  0.90944557  0.42767641  0.82721916     0.99600
O973        O  0.91806524  0.43418203  0.85841887    -0.81000
O974        O  0.91514265  0.45037287  0.92570790    -0.83600
C975        C  0.89624236  0.41585741  0.92856850     1.04000
O976        O  0.86161140  0.39986931  0.92432314    -0.76400
O977        O  0.79821842  0.38381157  0.89127273    -0.76600
C978        C  0.80278709  0.36813167  0.86525729     1.04000
Cr979      Cr  0.84693399  0.44272274  0.83499482     1.93700
Cr980      Cr  0.91466622  0.47327933  0.88150831     1.93200
Cr981      Cr  0.83806160  0.43046480  0.91407422     1.39100
O982        O  0.86598504  0.44858023  0.87673370    -1.21700
O983        O  0.07069919  0.76063483  0.75044643    -0.83900
O984        O  0.01461417  0.73456872  0.70485047    -0.81000
C985        C  0.99800040  0.70971740  0.68252123     0.99500
O986        O  0.98199031  0.67592333  0.69045287    -0.81000
O987        O  0.02979656  0.65150625  0.70911720    -0.83600
C988        C  0.05089724  0.64498792  0.72732436     1.04100
O989        O  0.04848321  0.64449671  0.75955394    -0.76400
O990        O  0.08852450  0.71925747  0.75694785    -0.76600
C991        C  0.09312839  0.74896555  0.74373780     1.04000
O992        O  0.01109099  0.73252351  0.80745372    -0.83900
O993        O  0.95803475  0.70337416  0.76107861    -0.81000
C994        C  0.93464258  0.66881800  0.76511961     0.99600
O995        O  0.94064806  0.64429150  0.75308352    -0.81000
O996        O  0.98105661  0.61328407  0.76682149    -0.83600
C997        C  0.97979886  0.61759814  0.79887579     1.04000
O998        O  0.00348042  0.64747537  0.81354993    -0.76400
O999        O  0.05640116  0.72377614  0.81915469    -0.76600
C1000       C  0.03256358  0.73120890  0.82907727     1.04000
Cr1001     Cr  0.01408380  0.73006090  0.75610063     1.93700
Cr1002     Cr  0.98566968  0.64936819  0.73133928     1.93200
Cr1003     Cr  0.04664339  0.68416874  0.78553473     1.39100
O1004       O  0.01534807  0.68839353  0.75718048    -1.21700
O1005       O  0.07969484  0.71062830  0.99937009    -0.83900
O1006       O  0.03947108  0.64070896  0.51565475    -0.81000
C1007       C  0.04284774  0.64787709  0.54749867     0.99500
O1008       O  0.02060130  0.65515424  0.56299858    -0.81000
O1009       O  0.96889553  0.67925083  0.57027603    -0.83600
C1010       C  0.99273957  0.71125169  0.57923177     1.04100
O1011       O  0.01445330  0.73354578  0.55710029    -0.76400
O1012       O  0.06697382  0.75502363  0.50953572    -0.76600
C1013       C  0.08954694  0.74301481  0.51075153     1.04000
O1014       O  0.03528167  0.69847510  0.93949907    -0.83900
O1015       O  0.98661303  0.62738349  0.96180201    -0.81000
C1016       C  0.96598147  0.60063615  0.98139662     0.99600
O1017       O  0.97077449  0.60392571  0.01333336    -0.81000
O1018       O  0.93410774  0.64179480  0.50974228    -0.83600
C1019       C  0.92807240  0.66515355  0.99704473     1.04000
O1020       O  0.95211968  0.69980846  0.00169539    -0.76400
O1021       O  0.00838790  0.72945411  0.95490148    -0.76600
C1022       C  0.02261060  0.71909888  0.93216964     1.04000
Cr1023     Cr  0.03272468  0.66997057  0.98118013     1.93700
Cr1024     Cr  0.97668306  0.64849678  0.53662384     1.93200
Cr1025     Cr  0.01087827  0.72710639  0.50565774     1.39100
O1026       O  0.00752960  0.68319864  0.50689600    -1.21700
O1027       O  0.51377645  0.43454155  0.85507023    -0.83900
O1028       O  0.53079336  0.45073632  0.92258210    -0.81000
C1029       C  0.51477884  0.41625053  0.92589312     0.99500
O1030       O  0.53328249  0.40034915  0.92305660    -0.81000
O1031       O  0.58207129  0.38482723  0.89295191    -0.83600
C1032       C  0.56231602  0.36848032  0.86663405     1.04100
O1033       O  0.56409422  0.38726231  0.84044491    -0.76400
O1034       O  0.54813001  0.43604084  0.81106001    -0.76600
C1035       C  0.51686455  0.42813737  0.82409136     1.04000
O1036       O  0.57598072  0.50197262  0.83599324    -0.83900
O1037       O  0.59856047  0.51316629  0.90254517    -0.81000
C1038       C  0.60514339  0.50769729  0.93275380     0.99600
O1039       O  0.59562595  0.47528452  0.94364514    -0.81000
O1040       O  0.64249555  0.46199099  0.90807442    -0.83600
C1041       C  0.66018933  0.46636078  0.88043804     1.04000
O1042       O  0.64289615  0.44867194  0.85332982    -0.76400
O1043       O  0.62468552  0.49717607  0.82811423    -0.76600
C1044       C  0.60949041  0.51646232  0.82809655     1.04000
Cr1045     Cr  0.55626516  0.47360865  0.87896520     1.93700
Cr1046     Cr  0.58795971  0.43134992  0.91471812     1.93200
Cr1047     Cr  0.59429040  0.44238341  0.83553858     1.39100
O1048       O  0.57968181  0.44877607  0.87624537    -1.21700
O1049       O  0.26914513  0.33618571  0.73753550    -0.83900
O1050       O  0.29609901  0.30888786  0.69278806    -0.81000
C1051       C  0.32011991  0.31102479  0.67216526     0.99500
O1052       O  0.35166670  0.32031652  0.68327929    -0.81000
O1053       O  0.37163476  0.39520825  0.68919619    -0.83600
C1054       C  0.37554791  0.42413970  0.70363868     1.04100
O1055       O  0.38142460  0.42921246  0.73560603    -0.76400
O1056       O  0.30935068  0.39539554  0.74857184    -0.76600
C1057       C  0.27979888  0.37058348  0.73457033     1.04000
O1058       O  0.29340024  0.30633266  0.79564563    -0.83900
O1059       O  0.32693501  0.28274400  0.75148389    -0.81000
C1060       C  0.36140580  0.29496351  0.75824960     0.99600
O1061       O  0.38678946  0.32594014  0.74663326    -0.81000
O1062       O  0.41983549  0.40120329  0.74425239    -0.83600
C1063       C  0.42109939  0.40062130  0.77650133     1.04000
O1064       O  0.39254779  0.39252659  0.79405354    -0.76400
O1065       O  0.31924410  0.36464060  0.81105405    -0.76600
C1066       C  0.30136749  0.33071704  0.81836495     1.04000
Cr1067     Cr  0.29954985  0.31136403  0.74442798     1.93700
Cr1068     Cr  0.37944513  0.36019960  0.71763155     1.93200
Cr1069     Cr  0.34994354  0.39233840  0.77080767     1.39100
O1070       O  0.34231870  0.35401203  0.74486920    -1.21700
O1071       O  0.38860265  0.32675637  0.49921289    -0.83900
O1072       O  0.42011480  0.39967444  0.98303873    -0.81000
C1073       C  0.41523278  0.39168233  0.95139027     0.99500
O1074       O  0.38563901  0.38533292  0.93634063    -0.81000
O1075       O  0.30951857  0.36235369  0.93043871    -0.83600
C1076       C  0.29956831  0.33005953  0.92138706     1.04100
O1077       O  0.29942091  0.30781647  0.94302854    -0.76400
O1078       O  0.33131174  0.28599749  0.98882933    -0.76600
C1079       C  0.36606942  0.29761958  0.98740153     1.04000
O1080       O  0.35769284  0.33814660  0.56065303    -0.83900
O1081       O  0.38351445  0.41034646  0.54063916    -0.81000
C1082       C  0.39146005  0.43814761  0.52202880     0.99600
O1083       O  0.39104950  0.43548678  0.48979026    -0.81000
O1084       O  0.31439794  0.39978324  0.99151690    -0.83600
C1085       C  0.28531153  0.37556777  0.50448160     1.04000
O1086       O  0.27370497  0.34087695  0.49959946    -0.76400
O1087       O  0.29910407  0.30981215  0.54566298    -0.76600
C1088       C  0.32389575  0.31901500  0.56827232     1.04000
Cr1089     Cr  0.38433661  0.36751403  0.51933449     1.93700
Cr1090     Cr  0.34950194  0.39274843  0.96367083     1.93200
Cr1091     Cr  0.30340560  0.31431196  0.49418866     1.39100
O1092       O  0.34542617  0.35767024  0.49322454    -1.21700
O1093       O  0.41624261  0.52159255  0.63268880    -0.83900
O1094       O  0.45714660  0.55454071  0.57363167    -0.81000
C1095       C  0.42559183  0.53968197  0.56077020     0.99500
O1096       O  0.40659056  0.55460584  0.56521530    -0.81000
O1097       O  0.37569845  0.58818950  0.59607890    -0.83600
C1098       C  0.35738088  0.57376771  0.62364717     1.04100
O1099       O  0.37356708  0.57994774  0.65238720    -0.76400
O1100       O  0.40719348  0.54672525  0.67965364    -0.76600
C1101       C  0.40057428  0.51850045  0.66119943     1.04000
O1102       O  0.47603569  0.57092014  0.67246752    -0.83900
O1103       O  0.50833073  0.61230946  0.61377123    -0.81000
C1104       C  0.51145918  0.62918003  0.58599763     0.99600
O1105       O  0.48308624  0.62435775  0.56860618    -0.81000
O1106       O  0.45046259  0.65802867  0.59874009    -0.83600
C1107       C  0.45778188  0.67348170  0.62789547     1.04000
O1108       O  0.44465465  0.65457646  0.65533814    -0.76400
O1109       O  0.47778736  0.62207190  0.68270454    -0.76600
C1110       C  0.49229711  0.60250642  0.68534100     1.04000
Cr1111     Cr  0.46272767  0.56654542  0.62322054     1.93700
Cr1112     Cr  0.42947192  0.60566286  0.58467712     1.93200
Cr1113     Cr  0.42631524  0.60044111  0.66494744     1.39100
O1114       O  0.43904586  0.59148713  0.62428614    -1.21700
O1115       O  0.74523151  0.70236428  0.99676652    -0.83900
O1116       O  0.71843757  0.73153762  0.95063204    -0.81000
C1117       C  0.69371049  0.71995547  0.92771680     0.99500
O1118       O  0.65999537  0.69904309  0.93505130    -0.81000
O1119       O  0.63586788  0.62828586  0.95822398    -0.83600
C1120       C  0.62948650  0.60183620  0.97813795     1.04100
O1121       O  0.62872359  0.60576935  0.00997938    -0.76400
O1122       O  0.70638437  0.64389597  0.50360362    -0.76600
C1123       C  0.73416335  0.66793294  0.99102616     1.04000
O1124       O  0.72132300  0.73524098  0.55388094    -0.83900
O1125       O  0.69059675  0.75792136  0.50816116    -0.81000
C1126       C  0.65591941  0.74644883  0.50801413     0.99600
O1127       O  0.62830257  0.71239009  0.99544920    -0.81000
O1128       O  0.60167243  0.64610717  0.51340365    -0.83600
C1129       C  0.60710343  0.65395222  0.54512287     1.04000
O1130       O  0.63673379  0.65972856  0.55993078    -0.76400
O1131       O  0.71330082  0.68130412  0.56453440    -0.76600
C1132       C  0.72169578  0.71273275  0.57483989     1.04000
Cr1133     Cr  0.71422698  0.72748003  0.00199212     1.93700
Cr1134     Cr  0.63374082  0.67141739  0.97732331     1.93200
Cr1135     Cr  0.67209530  0.65129608  0.53240067     1.39100
O1136       O  0.67310585  0.68342384  0.00345542    -1.21700
O1137       O  0.63314383  0.71630090  0.74960770    -0.83900
O1138       O  0.59748600  0.64113309  0.75285570    -0.81000
C1139       C  0.59560424  0.63974404  0.72059423     0.99500
O1140       O  0.62398788  0.64802606  0.70277221    -0.81000
O1141       O  0.69694961  0.67440811  0.68519191    -0.83600
C1142       C  0.71588749  0.70839489  0.67801821     1.04100
O1143       O  0.72473199  0.73282632  0.70082328    -0.76400
O1144       O  0.69339765  0.75820368  0.74538845    -0.76600
C1145       C  0.65916606  0.74700018  0.73828646     1.04000
O1146       O  0.66842638  0.72176696  0.81239842    -0.83900
O1147       O  0.64487143  0.64550697  0.80769763    -0.81000
C1148       C  0.63909327  0.61573924  0.79348526     0.99600
O1149       O  0.63404772  0.61094443  0.76135417    -0.81000
O1150       O  0.70565817  0.64210865  0.74748167    -0.83600
C1151       C  0.73624817  0.66618342  0.76035612     1.04000
O1152       O  0.74788259  0.70085748  0.75768947    -0.76400
O1153       O  0.72256253  0.72923361  0.80352405    -0.76600
C1154       C  0.69917059  0.72882485  0.82389848     1.04000
Cr1155     Cr  0.63899931  0.68153372  0.77887101     1.93700
Cr1156     Cr  0.66603396  0.64710042  0.72571544     1.93200
Cr1157     Cr  0.71898757  0.72758452  0.75188663     1.39100
O1158       O  0.67530397  0.68594711  0.75153376    -1.21700
O1159       O  0.23312626  0.41525189  0.57760540    -0.83900
O1160       O  0.24792970  0.41885887  0.64858430    -0.81000
C1161       C  0.25806525  0.43362413  0.67802969     0.99500
O1162       O  0.25576574  0.46169771  0.68617848    -0.81000
O1163       O  0.30105539  0.52685607  0.64948056    -0.83600
C1164       C  0.31648714  0.54632479  0.62287103     1.04100
O1165       O  0.29796986  0.54073875  0.59541474    -0.76400
O1166       O  0.27601085  0.47241431  0.56458545    -0.76600
C1167       C  0.26177611  0.43772146  0.56083118     1.04000
O1168       O  0.16804603  0.41740050  0.59226297    -0.83900
O1169       O  0.18011146  0.41509137  0.66323051    -0.81000
C1170       C  0.17393915  0.43722390  0.68005807     0.99600
O1171       O  0.19384044  0.47193336  0.67538310    -0.81000
O1172       O  0.24067470  0.54032886  0.64355911    -0.83600
C1173       C  0.22734201  0.54551492  0.61625914     1.04000
O1174       O  0.22279865  0.52585942  0.58976551    -0.76400
O1175       O  0.20267587  0.46029228  0.55411333    -0.76600
C1176       C  0.17213454  0.43198362  0.56282237     1.04000
Cr1177     Cr  0.20993601  0.42196661  0.62032823     1.93700
Cr1178     Cr  0.24670285  0.49775815  0.65980294     1.93200
Cr1179     Cr  0.24852704  0.49739777  0.57981164     1.39100
O1180       O  0.23508900  0.47244265  0.61996793    -1.21700
O1181       O  0.61279884  0.78257663  0.65251702    -0.83900
O1182       O  0.61481716  0.79552045  0.58106014    -0.81000
C1183       C  0.59198123  0.76709828  0.56419657     0.99500
O1184       O  0.55737386  0.75279557  0.56872010    -0.81000
O1185       O  0.49040717  0.73298210  0.60153275    -0.83600
C1186       C  0.48488425  0.71428679  0.62892199     1.04100
O1187       O  0.50457761  0.72939791  0.65540297    -0.76400
O1188       O  0.57072697  0.77601277  0.69050372    -0.76600
C1189       C  0.59844376  0.77305046  0.68220444     1.04000
O1190       O  0.61667400  0.85093923  0.66557082    -0.83900
O1191       O  0.61392710  0.86134722  0.59426996    -0.81000
C1192       C  0.59914595  0.85663033  0.56484001     0.99600
O1193       O  0.57042303  0.82608214  0.55698450    -0.81000
O1194       O  0.50612067  0.80799995  0.59388924    -0.83600
C1195       C  0.48611299  0.80325994  0.62012838     1.04000
O1196       O  0.49093527  0.78962939  0.64747130    -0.76400
O1197       O  0.55985951  0.83746166  0.67780808    -0.76600
C1198       C  0.59460423  0.85766795  0.68186994     1.04000
Cr1199     Cr  0.60933191  0.81998071  0.62341747     1.93700
Cr1200     Cr  0.53346133  0.78125963  0.58407985     1.93200
Cr1201     Cr  0.53399620  0.78421691  0.66398425     1.39100
O1202       O  0.55890804  0.79501142  0.62381475    -1.21700
O1203       O  0.78582239  0.62463072  0.83391677    -0.83900
O1204       O  0.77064885  0.62214051  0.90487204    -0.81000
C1205       C  0.75934792  0.60715930  0.93414058     0.99500
O1206       O  0.76127659  0.57897693  0.94272813    -0.81000
O1207       O  0.71634949  0.51347401  0.90666533    -0.83600
C1208       C  0.70102657  0.49404838  0.88003916     1.04100
O1209       O  0.71967463  0.49946194  0.85272087    -0.76400
O1210       O  0.74316863  0.56754756  0.82048956    -0.76600
C1211       C  0.75763876  0.60226739  0.81659131     1.04000
O1212       O  0.85040390  0.62189755  0.84904920    -0.83900
O1213       O  0.83832283  0.62528660  0.92010091    -0.81000
C1214       C  0.84388337  0.60307542  0.93754201     0.99600
O1215       O  0.82332918  0.56836875  0.93353787    -0.81000
O1216       O  0.77740689  0.50018436  0.90235141    -0.83600
C1217       C  0.78983716  0.49348893  0.87521762     1.04000
O1218       O  0.79374032  0.51185803  0.84791341    -0.76400
O1219       O  0.81614510  0.57786161  0.81165618    -0.76600
C1220       C  0.84661974  0.60639562  0.82009188     1.04000
Cr1221     Cr  0.80855223  0.61803663  0.87697215     1.93700
Cr1222     Cr  0.77074933  0.54267189  0.91735034     1.93200
Cr1223     Cr  0.76957258  0.54182337  0.83715035     1.39100
O1224       O  0.78296811  0.56743850  0.87712490    -1.21700
C1225       C  0.61229781  0.75647618  0.70789018    -0.15000
C1226       C  0.64861468  0.76863891  0.71480278    -0.30200
H1227       H  0.59091345  0.73346427  0.72277668     0.14000
H1228       H  0.67032804  0.79284055  0.70143267     0.14600
C1229       C  0.74096346  0.61667117  0.79149371    -0.15000
C1230       C  0.75720633  0.65278126  0.78120206    -0.30200
H1231       H  0.71359110  0.59656034  0.78167954     0.14000
H1232       H  0.78445199  0.67312328  0.79106021     0.14600
C1233       C  0.70546516  0.73293145  0.86072719    -0.11800
C1234       C  0.70350482  0.72984786  0.89189028    -0.13400
C1235       C  0.72806383  0.72064430  0.61123401    -0.11800
C1236       C  0.72600015  0.71879263  0.64241064    -0.13400
C1237       C  0.64172603  0.76713161  0.52791607    -0.15000
C1238       C  0.60585526  0.75032071  0.53876895    -0.30200
H1239       H  0.66175732  0.79459493  0.53752139     0.14000
H1240       H  0.58594466  0.72272668  0.52936095     0.14600
C1241       C  0.75526306  0.65708311  0.96722146    -0.15000
C1242       C  0.74204298  0.62088359  0.95911152    -0.30200
H1243       H  0.78024261  0.67869790  0.95472286     0.14000
H1244       H  0.71797577  0.59946415  0.97288515     0.14600
C1245       C  0.56053504  0.62803345  0.70554862    -0.11800
C1246       C  0.52907745  0.61731290  0.69752129    -0.13400
C1247       C  0.57786200  0.65461182  0.56307855    -0.11800
C1248       C  0.54802208  0.64869350  0.57244803    -0.13400
C1249       C  0.40118297  0.47313387  0.53640144    -0.11800
C1250       C  0.41059861  0.50393293  0.54584080    -0.13400
C1251       C  0.26384535  0.38763323  0.52621810    -0.15000
C1252       C  0.27921564  0.42367402  0.53636500    -0.30200
H1253       H  0.23677315  0.36674705  0.53593680     0.14000
H1254       H  0.30637504  0.44427123  0.52653012     0.14600
C1255       C  0.37474267  0.45269911  0.68491191    -0.11800
C1256       C  0.38068279  0.48209858  0.67455509    -0.13400
C1257       C  0.27394126  0.41929293  0.70374934    -0.15000
C1258       C  0.25930456  0.38285853  0.71170848    -0.30200
H1259       H  0.29826007  0.44016265  0.71761151     0.14000
H1260       H  0.23424143  0.36198718  0.69875739     0.14600
C1261       C  0.31435871  0.30882052  0.60413892    -0.11800
C1262       C  0.31324233  0.30611585  0.63537128    -0.13400
C1263       C  0.29194766  0.32068831  0.85414910    -0.11800
C1264       C  0.29137634  0.32038745  0.88540636    -0.13400
C1265       C  0.48448990  0.41556554  0.80373308    -0.11800
C1266       C  0.45507109  0.40839555  0.79201556    -0.13400
C1267       C  0.47554311  0.39669644  0.92946516    -0.11800
C1268       C  0.44471455  0.39082051  0.93424271    -0.13400
C1269       C  0.62906241  0.55494339  0.82037182    -0.11800
C1270       C  0.63667301  0.58567945  0.81248129    -0.13400
C1271       C  0.61853453  0.53858990  0.95485395    -0.11800
C1272       C  0.62447795  0.56777623  0.96580335    -0.13400
C1273       C  0.89509450  0.65315750  0.97412455    -0.15000
C1274       C  0.87467833  0.61730881  0.96314841    -0.30200
H1275       H  0.88941663  0.67401332  0.96403541     0.14000
H1276       H  0.88085497  0.59682181  0.97333288     0.14600
C1277       C  0.99781923  0.71930396  0.64670475    -0.11800
C1278       C  0.99635938  0.72029091  0.61551397    -0.13400
C1279       C  0.02808180  0.73452695  0.86560713    -0.11800
C1280       C  0.02457953  0.73032805  0.89659934    -0.13400
C1281       C  0.90070241  0.65648653  0.78677343    -0.15000
C1282       C  0.87818388  0.62025874  0.79543204    -0.30200
H1283       H  0.89597567  0.67743490  0.79818115     0.14000
H1284       H  0.88214043  0.59924554  0.78303158     0.14600
C1285       C  0.91381128  0.53762786  0.95635662    -0.11800
C1286       C  0.93662346  0.56670448  0.96837443    -0.13400
C1287       C  0.92776187  0.55568622  0.82373946    -0.11800
C1288       C  0.95142657  0.58688947  0.81713154    -0.13400
C1289       C  0.65049847  0.91051355  0.53202282    -0.15000
C1290       C  0.61392172  0.88708850  0.53895859    -0.30200
H1291       H  0.67140733  0.90713591  0.54544618     0.14000
H1292       H  0.59315790  0.88964511  0.52432848     0.14600
C1293       C  0.74412735  0.15462655  0.95512107    -0.15000
C1294       C  0.75833892  0.13248265  0.96218766    -0.30200
H1295       H  0.72058159  0.15136399  0.96994269     0.14000
H1296       H  0.78293148  0.13669149  0.94861916     0.14600
C1297       C  0.70986453  0.00461869  0.88858073    -0.11800
C1298       C  0.70965882  0.00524443  0.85731916    -0.13400
C1299       C  0.72926413  0.04031776  0.63889876    -0.11800
C1300       C  0.73189005  0.04171636  0.60776710    -0.13400
C1301       C  0.60915544  0.88935158  0.70627743    -0.15000
C1302       C  0.64498597  0.90942752  0.71724419    -0.30200
H1303       H  0.58899173  0.89650800  0.71550639     0.14000
H1304       H  0.66546918  0.90271086  0.70806416     0.14600
C1305       C  0.75700089  0.13676535  0.77616287    -0.15000
C1306       C  0.73938454  0.15455750  0.78735317    -0.30200
H1307       H  0.78463066  0.14497532  0.78560743     0.14000
H1308       H  0.71152934  0.14581562  0.77815423     0.14600
C1309       C  0.61430676  0.10046882  0.81030864    -0.11800
C1310       C  0.62548134  0.08042245  0.80174512    -0.13400
C1311       C  0.62550625  0.10664165  0.94116520    -0.11800
C1312       C  0.63183790  0.08330266  0.95095638    -0.13400
C1313       C  0.89776693  0.27263233  0.78244750    -0.15000
C1314       C  0.87453398  0.28569516  0.78847476    -0.30200
H1315       H  0.89406223  0.24835394  0.79626500     0.14000
H1316       H  0.87720295  0.30879831  0.77329765     0.14600
C1317       C  0.14321447  0.42266233  0.70571888    -0.15000
C1318       C  0.12378981  0.38686022  0.71701877    -0.30200
H1319       H  0.13605269  0.44263282  0.71544345     0.14000
H1320       H  0.13050042  0.36656976  0.70728627     0.14600
C1321       C  0.95016861  0.40603768  0.79641153    -0.11800
C1322       C  0.92866071  0.41398743  0.80803163    -0.13400
C1323       C  0.99008790  0.30307874  0.60857762    -0.11800
C1324       C  0.99031379  0.30245676  0.63980432    -0.13400
C1325       C  0.02512689  0.32047614  0.88910399    -0.11800
C1326       C  0.02599260  0.32190833  0.85788124    -0.13400
C1327       C  0.87247960  0.28998348  0.95765296    -0.15000
C1328       C  0.89037597  0.27243786  0.96889682    -0.30200
H1329       H  0.88054905  0.31738468  0.96751991     0.14000
H1330       H  0.88267551  0.24520332  0.95883049     0.14600
C1331       C  0.14099741  0.41728338  0.53782462    -0.15000
C1332       C  0.11674006  0.38070650  0.53197987    -0.30200
H1333       H  0.13883519  0.43799434  0.52271613     0.14000
H1334       H  0.11975570  0.35978773  0.54579507     0.14600
C1335       C  0.94004852  0.38947086  0.93829800    -0.11800
C1336       C  0.91588030  0.39642818  0.93293481    -0.13400
C1337       C  0.09580506  0.63916649  0.57038814    -0.11800
C1338       C  0.07203732  0.64635145  0.56454100    -0.13400
C1339       C  0.07803786  0.63831101  0.71253736    -0.11800
C1340       C  0.09989790  0.63079871  0.70080813    -0.13400
C1341       C  0.07455516  0.45699551  0.69000407    -0.11800
C1342       C  0.09834465  0.48793130  0.68295698    -0.13400
C1343       C  0.09306481  0.49574433  0.55234753    -0.11800
C1344       C  0.07077989  0.46607148  0.54098450    -0.13400
C1345       C  0.40884933  0.28668920  0.78935128    -0.15000
C1346       C  0.37260544  0.27381928  0.78167051    -0.30200
H1347       H  0.43026685  0.31054276  0.77533308     0.14000
H1348       H  0.35106271  0.24887737  0.79428292     0.14600
C1349       C  0.37953216  0.27606170  0.96773406    -0.15000
C1350       C  0.41542857  0.29188017  0.95713262    -0.30200
H1351       H  0.35906607  0.24859064  0.95842138     0.14000
H1352       H  0.43577850  0.31943752  0.96636982     0.14600
C1353       C  0.14352836  0.75257307  0.70717051    -0.15000
C1354       C  0.12428121  0.76869303  0.71846217    -0.30200
H1355       H  0.13861842  0.72695385  0.71914391     0.14000
H1356       H  0.12986729  0.79495401  0.70747109     0.14600
C1357       C  0.14484249  0.74798308  0.53906302    -0.15000
C1358       C  0.12528913  0.76432005  0.52950466    -0.30200
H1359       H  0.13679206  0.72044093  0.52950811     0.14000
H1360       H  0.13317240  0.79176750  0.53919572     0.14600
C1361       C  0.41044216  0.15194004  0.78891214    -0.15000
C1362       C  0.37447383  0.13181094  0.77815765    -0.30200
H1363       H  0.43027850  0.14451193  0.77963022     0.14000
H1364       H  0.35432794  0.13882430  0.78740147     0.14600
C1365       C  0.25979111  0.90364648  0.71828622    -0.15000
C1366       C  0.27684663  0.88459347  0.70870343    -0.30200
H1367       H  0.23318170  0.89668576  0.70718664     0.14000
H1368       H  0.30355641  0.89195175  0.71981606     0.14600
C1369       C  0.44380762  0.08231517  0.80668999    -0.11800
C1370       C  0.47355590  0.10545056  0.81714988    -0.13400
C1371       C  0.30953684  0.03385678  0.63985177    -0.11800
C1372       C  0.30973708  0.03533384  0.60860971    -0.13400
C1373       C  0.28979686  0.00145825  0.85950712    -0.11800
C1374       C  0.29111689  0.00190088  0.89076829    -0.13400
C1375       C  0.37286365  0.13131983  0.96578301    -0.15000
C1376       C  0.40896269  0.15347335  0.95630299    -0.30200
H1377       H  0.35165121  0.13565130  0.95434505     0.14000
H1378       H  0.43018447  0.14989150  0.96881932     0.14600
C1379       C  0.26116931  0.90689028  0.53284540    -0.15000
C1380       C  0.27576966  0.88532205  0.54066558    -0.30200
H1381       H  0.23585433  0.90198753  0.54545550     0.14000
H1382       H  0.30019971  0.88934472  0.52691366     0.14600
C1383       C  0.48165022  0.10551172  0.94206073    -0.11800
C1384       C  0.45012699  0.08256117  0.94773937    -0.13400
C1385       C  0.54729106  0.94072462  0.57111268    -0.11800
C1386       C  0.57742655  0.96221924  0.56001320    -0.13400
C1387       C  0.56568144  0.95540865  0.69966180    -0.11800
C1388       C  0.53437266  0.93136264  0.69436050    -0.13400
C1389       C  0.38779708  0.92455484  0.69541113    -0.11800
C1390       C  0.38201740  0.94806904  0.70581751    -0.13400
C1391       C  0.40552155  0.94368256  0.56300353    -0.11800
C1392       C  0.39482661  0.96411239  0.55428829    -0.13400
loop_ 
_geom_bond_atom_site_label_1 
_geom_bond_atom_site_label_2 
_geom_bond_distance 
_geom_bond_site_symmetry_2 
_ccdc_geom_bond_type 
O1          Cr19   2.022       .  S
O1            C9   1.271       .  A
O2          Cr19   1.990       .  S
O2            C3   1.251       .  A
C3            O4   1.245       .  A
C3          C692   1.413       .  S
O4          Cr20   1.966       .  S
O5          Cr20   1.927       .  S
O5            C6   1.251       .  A
C6            O7   1.278       .  A
C6          C689   1.407       .  S
O7          Cr21   2.033       .  S
O8          Cr21   1.990       .  S
O8            C9   1.261       .  A
C9          C499   1.500       .  S
O10         Cr19   1.975       .  S
O10          C18   1.261       .  A
O11         Cr19   2.048       .  S
O11          C12   1.280       .  A
C12          O13   1.253       .  A
C12         C693   1.414       .  S
O13         Cr20   1.930       .  S
O14         Cr20   1.971       .  S
O14          C15   1.247       .  A
C15          O16   1.253       .  A
C15         C695   1.422       .  S
O16         Cr21   1.992       .  S
O17         Cr21   2.022       .  S
O17          C18   1.272       .  A
C18          C72   1.491       .  S
Cr19         O22   1.770       .  S
Cr20         O22   1.763       .  S
Cr21         O22   1.764       .  S
O23         Cr41   2.038   1_564  S
O23          C31   1.280       .  A
O24         Cr41   1.992   1_554  S
O24          C25   1.252       .  A
C25          O26   1.250       .  A
C25         C676   1.440       .  S
O26         Cr42   1.980       .  S
O27         Cr42   1.993       .  S
O27          C28   1.266   1_545  A
C28          O29   1.259       .  A
C28         C696   1.420       .  S
O29        Cr739   1.983   1_554  S
O30         Cr43   1.952       .  S
O30         C727   1.261       .  A
C31         O726   1.261   1_554  A
C31         C683   1.490       .  S
O32        Cr737   1.995       .  S
O32          C40   1.253       .  A
O33        Cr737   2.043       .  S
O33          C34   1.281       .  A
C34         O731   1.262       .  A
C34         C679   1.496       .  S
O35         Cr42   1.966       .  S
O35         C730   1.263   1_554  A
O36        Cr738   1.969       .  S
O36          C37   1.254       .  A
C37          O38   1.262       .  A
C37         C688   1.411       .  S
O38         Cr43   1.989   1_545  S
O39         Cr43   1.981       .  S
O39          C40   1.251   1_565  A
C40         C678   1.443       .  S
Cr41        O728   1.995       .  S
Cr41        O729   2.041       .  S
Cr41         O44   1.771       .  S
Cr42        O732   1.965   1_554  S
Cr42         O44   1.781   1_554  S
Cr43        O725   1.982       .  S
Cr43        O740   1.779   1_565  S
O44        Cr739   1.780   1_545  S
O45         Cr63   1.952       .  S
O45          C53   1.264       .  A
O46         Cr63   1.976       .  S
O46          C47   1.252       .  A
C47          O48   1.261   1_565  A
C47         C694   1.420       .  S
O48         Cr64   1.993       .  S
O49         Cr64   1.969       .  S
O49          C50   1.250       .  A
C50          O51   1.254       .  A
C50         C675   1.440       .  S
O51         Cr65   1.995       .  S
O52         Cr65   2.051   1_565  S
O52          C53   1.286       .  A
C53         C669   1.491       .  S
O54         Cr63   1.976       .  S
O54          C62   1.246       .  A
O55         Cr63   1.987   1_545  S
O55          C56   1.266       .  A
C56          O57   1.258       .  A
C56         C673   1.411       .  S
O57         Cr64   1.973       .  S
O58         Cr64   1.965       .  S
O58          C59   1.263       .  A
C59          O60   1.279       .  A
C59         C666   1.494       .  S
O60         Cr65   2.034       .  S
O61         Cr65   1.999       .  S
O61          C62   1.250   1_545  A
C62         C677   1.442       .  S
Cr63         O66   1.785   1_565  S
Cr64         O66   1.779       .  S
Cr65         O66   1.771       .  S
O67         Cr85   2.005       .  S
O67          C75   1.261       .  A
O68         Cr85   1.983       .  S
O68          C69   1.263       .  A
C69          O70   1.267       .  A
C69         C684   1.478       .  S
O70         Cr86   2.010       .  S
O71         Cr86   2.008       .  S
O71          C72   1.266       .  A
C72          O73   1.264       .  A
O73         Cr87   2.006       .  S
O74         Cr87   1.994       .  S
O74          C75   1.265       .  A
C75         C670   1.484       .  S
O76         Cr85   1.990       .  S
O76          C84   1.263       .  A
O77         Cr85   1.998       .  S
O77          C78   1.260       .  A
C78          O79   1.264       .  A
C78         C661   1.482       .  S
O79         Cr86   1.996       .  S
O80         Cr86   2.019       .  S
O80          C81   1.265       .  A
C81          O82   1.266       .  A
C81         C128   1.487       .  S
O82         Cr87   1.991       .  S
O83         Cr87   2.006       .  S
O83          C84   1.264       .  A
C84         C657   1.480       .  S
Cr85         O88   1.811       .  S
Cr86         O88   1.799       .  S
Cr87         O88   1.788       .  S
O89        Cr107   2.009       .  S
O89          C97   1.262       .  A
O90        Cr107   1.993       .  S
O90          C91   1.264       .  A
C91          O92   1.266       .  A
C91         C649   1.485       .  S
O92        Cr108   2.011       .  S
O93        Cr108   2.002       .  S
O93          C94   1.266       .  A
C94          O95   1.266       .  A
C94         C336   1.498       .  S
O95        Cr109   2.023       .  S
O96        Cr109   1.995       .  S
O96          C97   1.264       .  A
C97         C654   1.488       .  S
O98        Cr107   1.990       .  S
O98         C106   1.264       .  A
O99        Cr107   2.013       .  S
O99         C100   1.263       .  A
C100        O101   1.265       .  A
C100        C665   1.489       .  S
O101       Cr108   1.995       .  S
O102       Cr108   2.023       .  S
O102        C103   1.268       .  A
C103        O104   1.266       .  A
C103        C191   1.499       .  S
O104       Cr109   2.005       .  S
O105       Cr109   2.013       .  S
O105        C106   1.267       .  A
C106        C680   1.484       .  S
Cr107       O110   1.817       .  S
Cr108       O110   1.793       .  S
Cr109       O110   1.799       .  S
O111       Cr129   1.998       .  S
O111        C119   1.263       .  A
O112       Cr129   2.030       .  S
O112        C113   1.274       .  A
C113        O114   1.251       .  A
C113        C647   1.409       .  S
O114       Cr130   1.931       .  S
O115       Cr130   1.967       .  S
O115        C116   1.250       .  A
C116        O117   1.252       .  A
C116        C646   1.410       .  S
O117       Cr131   1.981       .  S
O118       Cr131   2.028       .  S
O118        C119   1.275       .  A
C119        C477   1.503       .  S
O120       Cr129   2.019       .  S
O120        C128   1.272       .  A
O121       Cr129   2.003       .  S
O121        C122   1.258       .  A
C122        O123   1.250       .  A
C122        C641   1.422       .  S
O123       Cr130   1.967       .  S
O124       Cr130   1.928       .  S
O124        C125   1.249       .  A
C125        O126   1.276       .  A
C125        C644   1.413       .  S
O126       Cr131   2.041       .  S
O127       Cr131   1.975       .  S
O127        C128   1.258       .  A
Cr129       O132   1.763       .  S
Cr130       O132   1.756       .  S
Cr131       O132   1.767       .  S
O133       Cr151   2.022   1_655  S
O133        C141   1.276       .  A
O134       Cr151   2.007       .  S
O134        C135   1.251       .  A
C135        O136   1.243       .  A
C135        C629   1.443       .  S
O136       Cr152   1.971       .  S
O137       Cr152   1.999   1_655  S
O137        C138   1.270       .  A
C138        O139   1.262       .  A
C138        C639   1.424       .  S
O139       Cr849   1.982       .  S
O140       Cr153   1.959       .  S
O140        C837   1.261   1_554  A
C141        O836   1.261       .  A
C141        C632   1.485       .  S
O142       Cr847   1.997   1_554  S
O142        C150   1.256   1_455  A
O143       Cr847   2.047   1_554  S
O143        C144   1.286       .  A
C144        O841   1.269   1_554  A
C144        C636   1.495       .  S
O145       Cr152   1.959       .  S
O145        C840   1.267       .  A
O146       Cr848   1.972       .  S
O146        C147   1.249   1_556  A
C147        O148   1.257       .  A
C147        C648   1.412       .  S
O148       Cr153   1.984   1_455  S
O149       Cr153   1.976       .  S
O149        C150   1.253       .  A
C150        C627   1.445       .  S
Cr151       O838   1.997       .  S
Cr151       O839   2.048       .  S
Cr151       O154   1.773       .  S
Cr152       O842   1.972       .  S
Cr152       O154   1.782       .  S
Cr153       O835   1.981   1_554  S
Cr153       O850   1.776   1_654  S
O154       Cr849   1.778   1_455  S
O155       Cr173   1.948       .  S
O155        C163   1.265       .  A
O156       Cr173   1.975       .  S
O156        C157   1.250       .  A
C157        O158   1.258       .  A
C157        C625   1.415       .  S
O158       Cr174   1.988   1_655  S
O159       Cr174   1.979       .  S
O159        C160   1.254       .  A
C160        O161   1.256       .  A
C160        C630   1.445       .  S
O161       Cr175   1.996       .  S
O162       Cr175   2.052   1_655  S
O162        C163   1.287       .  A
C163        C617   1.490       .  S
O164       Cr173   1.977       .  S
O164        C172   1.244       .  A
O165       Cr173   1.980   1_455  S
O165        C166   1.266       .  A
C166        O167   1.262       .  A
C166        C645   1.408       .  S
O167       Cr174   1.978       .  S
O168       Cr174   1.966       .  S
O168        C169   1.261       .  A
C169        O170   1.276       .  A
C169        C622   1.493       .  S
O170       Cr175   2.028       .  S
O171       Cr175   2.005       .  S
O171        C172   1.250   1_455  A
C172        C628   1.445       .  S
Cr173       O176   1.783   1_655  S
Cr174       O176   1.776       .  S
Cr175       O176   1.769       .  S
O177       Cr195   1.968       .  S
O177        C185   1.245       .  A
O178       Cr195   1.930       .  S
O178        C179   1.254       .  A
C179        O180   1.280       .  A
C179        C615   1.413       .  S
O180       Cr196   2.045       .  S
O181       Cr196   1.982       .  S
O181        C182   1.261       .  A
C182        O183   1.272       .  A
C182        C257   1.496       .  S
O183       Cr197   2.025       .  S
O184       Cr197   1.991       .  S
O184        C185   1.251       .  A
C185        C613   1.417       .  S
O186       Cr195   1.925       .  S
O186        C194   1.252       .  A
O187       Cr195   1.966       .  S
O187        C188   1.244       .  A
C188        O189   1.249       .  A
C188        C687   1.413       .  S
O189       Cr196   1.987       .  S
O190       Cr196   2.027       .  S
O190        C191   1.273       .  A
C191        O192   1.260       .  A
O192       Cr197   1.982       .  S
O193       Cr197   2.041       .  S
O193        C194   1.280       .  A
C194        C674   1.409       .  S
Cr195       O198   1.765       .  S
Cr196       O198   1.765       .  S
Cr197       O198   1.767       .  S
O199       Cr217   2.038       .  S
O199        C207   1.281       .  A
O200       Cr217   1.998       .  S
O200        C201   1.253       .  A
C201        O202   1.249   1_545  A
C201        C602   1.444       .  S
O202       Cr218   1.977       .  S
O203       Cr218   1.987   1_545  S
O203        C204   1.263       .  A
C204        O205   1.258       .  A
C204        C614   1.417       .  S
O205       Cr219   1.982       .  S
O206       Cr219   1.955       .  S
O206        C207   1.262       .  A
C207        C609   1.489       .  S
O208       Cr217   1.998       .  S
O208        C216   1.254       .  A
O209       Cr217   2.041   1_565  S
O209        C210   1.281       .  A
C210        O211   1.263       .  A
C210        C606   1.492       .  S
O211       Cr218   1.956       .  S
O212       Cr218   1.971       .  S
O212        C213   1.254       .  A
C213        O214   1.261   1_565  A
C213        C691   1.413       .  S
O214       Cr219   1.990       .  S
O215       Cr219   1.980       .  S
O215        C216   1.250       .  A
C216        C603   1.446       .  S
Cr217       O220   1.772       .  S
Cr218       O220   1.783   1_565  S
Cr219       O220   1.782       .  S
O221       Cr239   1.952   1_556  S
O221        C925   1.263       .  A
O222       Cr935   1.973       .  S
O222        C223   1.252       .  A
C223        O224   1.261       .  A
C223        C616   1.416       .  S
O224       Cr240   1.991   1_545  S
O225       Cr240   1.976       .  S
O225        C226   1.251   1_565  A
C226        O227   1.255       .  A
C226        C601   1.444       .  S
O227       Cr241   1.998       .  S
O228       Cr241   2.049       .  S
O228        C229   1.284       .  A
C229        O917   1.262       .  A
C229        C598   1.493       .  S
O230       Cr239   1.976       .  S
O230        C238   1.246       .  A
O231       Cr239   1.984       .  S
O231        C232   1.265   1_545  A
C232        O233   1.258       .  A
C232        C690   1.408       .  S
O233       Cr936   1.972   1_554  S
O234       Cr240   1.960       .  S
O234        C931   1.262       .  A
C235        O236   1.279       .  A
C235        O930   1.264   1_554  A
C235        C593   1.498       .  S
O236       Cr937   2.035   1_564  S
O237       Cr937   2.004   1_554  S
O237        C238   1.252       .  A
C238        C604   1.445       .  S
Cr239       O918   1.970   1_554  S
Cr239       O938   1.783   1_554  S
Cr240       O929   1.979       .  S
Cr240       O242   1.778   1_565  S
Cr241       O932   2.036   1_545  S
Cr241       O933   1.998       .  S
Cr241       O242   1.770       .  S
O242       Cr935   1.783       .  S
O243       Cr261   1.982       .  S
O243        C251   1.263       .  A
O244       Cr261   2.001       .  S
O244        C245   1.261       .  A
C245        O246   1.264       .  A
C245        C631   1.482       .  S
O246       Cr262   1.993       .  S
O247       Cr262   2.025       .  S
O247        C248   1.268       .  A
C248        O249   1.265       .  A
C248        C282   1.494       .  S
O249       Cr263   1.997       .  S
O250       Cr263   2.014       .  S
O250        C251   1.267       .  A
C251        C618   1.478       .  S
O252       Cr261   2.007       .  S
O252        C260   1.262       .  A
O253       Cr261   1.983       .  S
O253        C254   1.264       .  A
C254        O255   1.268       .  A
C254        C597   1.480       .  S
O255       Cr262   2.015       .  S
O256       Cr262   1.991       .  S
O256        C257   1.265       .  A
C257        O258   1.267       .  A
O258       Cr263   2.031       .  S
O259       Cr263   1.991       .  S
O259        C260   1.264       .  A
C260        C610   1.483       .  S
Cr261       O264   1.809       .  S
Cr262       O264   1.789       .  S
Cr263       O264   1.791       .  S
O265       Cr283   2.022       .  S
O265        C273   1.272       .  A
O266       Cr283   1.996       .  S
O266        C267   1.256       .  A
C267        O268   1.249       .  A
C267        C591   1.419       .  S
O268       Cr284   1.966       .  S
O269       Cr284   1.923       .  S
O269        C270   1.250       .  A
C270        O271   1.273       .  A
C270        C589   1.404       .  S
O271       Cr285   2.028       .  S
O272       Cr285   2.000       .  S
O272        C273   1.265       .  A
C273        C521   1.502       .  S
O274       Cr283   1.997       .  S
O274        C282   1.263       .  A
O275       Cr283   2.033       .  S
O275        C276   1.275       .  A
C276        O277   1.251       .  A
C276        C626   1.412       .  S
O277       Cr284   1.932       .  S
O278       Cr284   1.967       .  S
O278        C279   1.248       .  A
C279        O280   1.258       .  A
C279        C640   1.426       .  S
O280       Cr285   2.008       .  S
O281       Cr285   2.011       .  S
O281        C282   1.270       .  A
Cr283       O286   1.764       .  S
Cr284       O286   1.760       .  S
Cr285       O286   1.767       .  S
O287       Cr305   2.050       .  S
O287        C295   1.286       .  A
O288       Cr305   1.992       .  S
O288        C289   1.255   1_455  A
C289        O290   1.255       .  A
C289        C581   1.444       .  S
O290       Cr306   1.983       .  S
O291       Cr306   1.996   1_455  S
O291        C292   1.262       .  A
C292        O293   1.250       .  A
C292        C643   1.418       .  S
O293       Cr307   1.972       .  S
O294       Cr307   1.954       .  S
O294        C295   1.265       .  A
C295        C658   1.494       .  S
O296       Cr305   1.998       .  S
O296        C304   1.248       .  A
O297       Cr305   2.023   1_655  S
O297        C298   1.275       .  A
C298        O299   1.263       .  A
C298        C585   1.493       .  S
O299       Cr306   1.972       .  S
O300       Cr306   1.977       .  S
O300        C301   1.261       .  A
C301        O302   1.268   1_655  A
C301        C592   1.415       .  S
O302       Cr307   1.991       .  S
O303       Cr307   1.978       .  S
O303        C304   1.245       .  A
C304        C583   1.441       .  S
Cr305       O308   1.770       .  S
Cr306       O308   1.773   1_655  S
Cr307       O308   1.785       .  S
O309       Cr327   1.957       .  S
O309       C1013   1.261       .  A
O310      Cr1023   1.981   1_554  S
O310        C311   1.262       .  A
C311        O312   1.269       .  A
C311        C642   1.421       .  S
O312       Cr328   1.997   1_455  S
O313       Cr328   1.974       .  S
O313        C314   1.243       .  A
C314        O315   1.250   1_655  A
C314        C582   1.443       .  S
O315       Cr329   2.006       .  S
O316       Cr329   2.025       .  S
O316        C317   1.276       .  A
C317       O1005   1.261   1_554  A
C317        C662   1.486       .  S
O318       Cr327   1.975       .  S
O318        C326   1.252       .  A
O319       Cr327   1.988   1_655  S
O319        C320   1.260       .  A
C320        O321   1.249       .  A
C320        C590   1.410       .  S
O321      Cr1024   1.967       .  S
O322       Cr328   1.957       .  S
O322       C1019   1.266   1_554  A
C323        O324   1.287       .  A
C323       O1018   1.265       .  A
C323        C577   1.496       .  S
O324      Cr1025   2.055   1_655  S
O325      Cr1025   1.995       .  S
O325        C326   1.256       .  A
C326        C584   1.442       .  S
Cr327      O1006   1.979       .  S
Cr327      O1026   1.775       .  S
Cr328      O1017   1.972       .  S
Cr328       O330   1.785   1_655  S
Cr329      O1020   2.055   1_455  S
Cr329      O1021   1.997   1_554  S
Cr329       O330   1.769       .  S
O330      Cr1023   1.774   1_554  S
O331       Cr349   1.933       .  S
O331        C339   1.251       .  A
O332       Cr349   1.964       .  S
O332        C333   1.249       .  A
C333        O334   1.255       .  A
C333        C571   1.417       .  S
O334       Cr350   1.996       .  S
O335       Cr350   2.022       .  S
O335        C336   1.273       .  A
C336        O337   1.262       .  A
O337       Cr351   1.994       .  S
O338       Cr351   2.040       .  S
O338        C339   1.276       .  A
C339        C569   1.416       .  S
O340       Cr349   1.967       .  S
O340        C348   1.250       .  A
O341       Cr349   1.926       .  S
O341        C342   1.249       .  A
C342        O343   1.276       .  A
C342        C575   1.412       .  S
O343       Cr350   2.040       .  S
O344       Cr350   1.989       .  S
O344        C345   1.262       .  A
C345        O346   1.275       .  A
C345        C512   1.499       .  S
O346       Cr351   2.029       .  S
O347       Cr351   1.997       .  S
O347        C348   1.257       .  A
C348        C573   1.420       .  S
Cr349       O352   1.756       .  S
Cr350       O352   1.768       .  S
Cr351       O352   1.762       .  S
O353       Cr371   2.024       .  S
O353        C361   1.275       .  A
O354       Cr371   2.002       .  S
O354        C355   1.250       .  A
C355        O356   1.245       .  A
C355        C566   1.443       .  S
O356       Cr372   1.978       .  S
O357       Cr372   1.994       .  S
O357        C358   1.268       .  A
C358        O359   1.261       .  A
C358        C559   1.417       .  S
O359       Cr373   1.977       .  S
O360       Cr373   1.966       .  S
O360        C361   1.262       .  A
C361        C562   1.492       .  S
O362       Cr371   2.000       .  S
O362        C370   1.258       .  A
O363       Cr371   2.050       .  S
O363        C364   1.286       .  A
C364        O365   1.267       .  A
C364        C650   1.495       .  S
O365       Cr372   1.960       .  S
O366       Cr372   1.977       .  S
O366        C367   1.251       .  A
C367        O368   1.261       .  A
C367        C570   1.420       .  S
O368       Cr373   1.993       .  S
O369       Cr373   1.978       .  S
O369        C370   1.254       .  A
C370        C567   1.447       .  S
Cr371       O374   1.771       .  S
Cr372       O374   1.784       .  S
Cr373       O374   1.775       .  S
O375       Cr393   1.973       .  S
O375       C1079   1.264   1_554  A
O376      Cr1089   1.975       .  S
O376        C377   1.260       .  A
C377        O378   1.266       .  A
C377        C572   1.415       .  S
O378       Cr394   1.991       .  S
O379       Cr394   1.980       .  S
O379        C380   1.245       .  A
C380        O381   1.251       .  A
C380        C568   1.447       .  S
O381      Cr1091   2.007       .  S
O382      Cr1091   2.032       .  S
O382        C383   1.277       .  A
C383       O1071   1.261       .  A
C383        C653   1.493       .  S
O384       Cr393   1.978       .  S
O384        C392   1.253       .  A
O385       Cr393   1.994       .  S
O385        C386   1.261       .  A
C386        O387   1.250   1_554  A
C386        C553   1.417       .  S
O387      Cr1090   1.972       .  S
O388       Cr394   1.953       .  S
O388       C1085   1.265       .  A
C389        O390   1.289       .  A
C389       O1084   1.267   1_554  A
C389        C555   1.500       .  S
O390       Cr395   2.060   1_554  S
O391       Cr395   1.993   1_554  S
O391        C392   1.255       .  A
C392        C565   1.444       .  S
Cr393      O1072   1.975   1_554  S
Cr393       O396   1.777   1_554  S
Cr394      O1083   1.980       .  S
Cr394      O1092   1.784       .  S
Cr395      O1077   2.003       .  S
Cr395      O1078   2.029       .  S
Cr395       O396   1.769       .  S
O396      Cr1090   1.786       .  S
O397       Cr415   1.964       .  S
O397        C405   1.249       .  A
O398       Cr415   1.929       .  S
O398        C399   1.250       .  A
C399        O400   1.275       .  A
C399        C554   1.411       .  S
O400       Cr416   2.035       .  S
O401       Cr416   1.997       .  S
O401        C402   1.264       .  A
C402        O403   1.271       .  A
C402        C468   1.494       .  S
O403       Cr417   2.014       .  S
O404       Cr417   1.998       .  S
O404        C405   1.257       .  A
C405        C560   1.419       .  S
O406       Cr415   1.936       .  S
O406        C414   1.252       .  A
O407       Cr415   1.964       .  S
O407        C408   1.248       .  A
C408        O409   1.258       .  A
C408        C552   1.424       .  S
O409       Cr416   2.007       .  S
O410       Cr416   2.014       .  S
O410        C411   1.270       .  A
C411        O412   1.263       .  A
C411        C490   1.492       .  S
O412       Cr417   1.995       .  S
O413       Cr417   2.028       .  S
O413        C414   1.273       .  A
C414        C550   1.411       .  S
Cr415       O418   1.757       .  S
Cr416       O418   1.768       .  S
Cr417       O418   1.764       .  S
O419       Cr437   2.054       .  S
O419        C427   1.289       .  A
O420       Cr437   1.994       .  S
O420        C421   1.256       .  A
C421        O422   1.253       .  A
C421        C538   1.442       .  S
O422       Cr438   1.975       .  S
O423       Cr438   2.000       .  S
O423        C424   1.260       .  A
C424        O425   1.246       .  A
C424        C576   1.418       .  S
O425      Cr1135   1.968       .  S
O426       Cr439   1.963       .  S
O426       C1123   1.268   1_554  A
C427       O1122   1.269       .  A
C427        C545   1.496       .  S
O428      Cr1133   2.013       .  S
O428        C436   1.251       .  A
O429      Cr1133   2.017       .  S
O429        C430   1.273       .  A
C430       O1127   1.262   1_554  A
C430        C541   1.487       .  S
O431       Cr438   1.975       .  S
O431       C1126   1.264       .  A
O432      Cr1134   1.981   1_554  S
O432        C433   1.263       .  A
C433        O434   1.271       .  A
C433        C551   1.422       .  S
O434       Cr439   2.000       .  S
O435       Cr439   1.973       .  S
O435        C436   1.242       .  A
C436        C539   1.445       .  S
Cr437      O1124   2.006       .  S
Cr437      O1125   2.017       .  S
Cr437       O440   1.770       .  S
Cr438      O1128   1.979       .  S
Cr438       O440   1.774       .  S
Cr439      O1121   1.967       .  S
Cr439      O1136   1.782       .  S
O440      Cr1135   1.781       .  S
O441       Cr459   1.961       .  S
O441        C449   1.267       .  A
O442       Cr459   1.975       .  S
O442        C443   1.250       .  A
C443        O444   1.258       .  A
C443        C549   1.414       .  S
O444       Cr460   1.985       .  S
O445       Cr460   1.984       .  S
O445        C446   1.255       .  A
C446        O447   1.256       .  A
C446        C540   1.447       .  S
O447       Cr461   1.993       .  S
O448       Cr461   2.059       .  S
O448        C449   1.289       .  A
C449        C530   1.499       .  S
O450       Cr459   1.979       .  S
O450        C458   1.244       .  A
O451       Cr459   1.992       .  S
O451        C452   1.269       .  A
C452        O453   1.263       .  A
C452        C574   1.418       .  S
O453       Cr460   1.981       .  S
O454       Cr460   1.968       .  S
O454        C455   1.261       .  A
C455        O456   1.277       .  A
C455        C534   1.497       .  S
O456       Cr461   2.033       .  S
O457       Cr461   2.000       .  S
O457        C458   1.249       .  A
C458        C537   1.441       .  S
Cr459       O462   1.785       .  S
Cr460       O462   1.774       .  S
Cr461       O462   1.768       .  S
O463       Cr481   2.016       .  S
O463        C471   1.263       .  A
O464       Cr481   1.986       .  S
O464        C465   1.264       .  A
C465        O466   1.267       .  A
C465        C561   1.482       .  S
O466       Cr482   2.011       .  S
O467       Cr482   2.005       .  S
O467        C468   1.266       .  A
C468        O469   1.264       .  A
O469       Cr483   2.014       .  S
O470       Cr483   2.000       .  S
O470        C471   1.265       .  A
C471        C556   1.494       .  S
O472       Cr481   1.993       .  S
O472        C480   1.264       .  A
O473       Cr481   2.006       .  S
O473        C474   1.261       .  A
C474        O475   1.265       .  A
C474        C621   1.490       .  S
O475       Cr482   1.998       .  S
O476       Cr482   2.025       .  S
O476        C477   1.266       .  A
C477        O478   1.268       .  A
O478       Cr483   2.010       .  S
O479       Cr483   2.006       .  S
O479        C480   1.265       .  A
C480        C635   1.483       .  S
Cr481       O484   1.818       .  S
Cr482       O484   1.801       .  S
Cr483       O484   1.795       .  S
O485       Cr503   1.995       .  S
O485        C493   1.264       .  A
O486       Cr503   2.012       .  S
O486        C487   1.264       .  A
C487        O488   1.263       .  A
C487        C542   1.484       .  S
O488       Cr504   1.989       .  S
O489       Cr504   2.027       .  S
O489        C490   1.267       .  A
C490        O491   1.264       .  A
O491       Cr505   1.993       .  S
O492       Cr505   2.020       .  S
O492        C493   1.268       .  A
C493        C529   1.490       .  S
O494       Cr503   2.015       .  S
O494        C502   1.265       .  A
O495       Cr503   1.994       .  S
O495        C496   1.265       .  A
C496        O497   1.268       .  A
C496        C594   1.489       .  S
O497       Cr504   2.017       .  S
O498       Cr504   1.994       .  S
O498        C499   1.265       .  A
C499        O500   1.269       .  A
O500       Cr505   2.038       .  S
O501       Cr505   1.989       .  S
O501        C502   1.265       .  A
C502        C605   1.485       .  S
Cr503       O506   1.810       .  S
Cr504       O506   1.790       .  S
Cr505       O506   1.790       .  S
O507       Cr525   2.008       .  S
O507        C515   1.261       .  A
O508       Cr525   1.994       .  S
O508        C509   1.264       .  A
C509        O510   1.266       .  A
C509        C546   1.485       .  S
O510       Cr526   2.010       .  S
O511       Cr526   2.004       .  S
O511        C512   1.266       .  A
C512        O513   1.265       .  A
O513       Cr527   2.021       .  S
O514       Cr527   2.004       .  S
O514        C515   1.266       .  A
C515        C533   1.494       .  S
O516       Cr525   1.990       .  S
O516        C524   1.265       .  A
O517       Cr525   2.013       .  S
O517        C518   1.262       .  A
C518        O519   1.263       .  A
C518        C578   1.489       .  S
O519       Cr526   1.993       .  S
O520       Cr526   2.019       .  S
O520        C521   1.266       .  A
C521        O522   1.267       .  A
O522       Cr527   2.011       .  S
O523       Cr527   2.011       .  S
O523        C524   1.267       .  A
C524        C586   1.485       .  S
Cr525       O528   1.820       .  S
Cr526       O528   1.797       .  S
Cr527       O528   1.803       .  S
C529        C530   1.359       .  D
C529        H531   1.087       .  S
C530        H532   1.086       .  S
C533        C534   1.363       .  D
C533        H535   1.086       .  S
C534        H536   1.086       .  S
C537        C538   1.210       .  T
C539        C540   1.212       .  T
C541        C542   1.356       .  D
C541        H543   1.086       .  S
C542        H544   1.085       .  S
C545        C546   1.357       .  D
C545        H547   1.086       .  S
C546        H548   1.086       .  S
C549        C550   1.194       .  T
C551        C552   1.200       .  T
C553        C554   1.195       .  T
C555        C556   1.363       .  D
C555        H557   1.086       .  S
C556        H558   1.087       .  S
C559        C560   1.197       .  T
C561        C562   1.356       .  D
C561        H563   1.086       .  S
C562        H564   1.086       .  S
C565        C566   1.211       .  T
C567        C568   1.213       .  T
C569        C570   1.197       .  T
C571        C572   1.196       .  T
C573        C574   1.198       .  T
C575        C576   1.196       .  T
C577        C578   1.362       .  D
C577        H579   1.087       .  S
C578        H580   1.088       .  S
C581        C582   1.211       .  T
C583        C584   1.210       .  T
C585        C586   1.355       .  D
C585        H587   1.086       .  S
C586        H588   1.086       .  S
C589        C590   1.191       .  T
C591        C592   1.197       .  T
C593        C594   1.358       .  D
C593        H595   1.086       .  S
C594        H596   1.087       .  S
C597        C598   1.358       .  D
C597        H599   1.087       .  S
C598        H600   1.086       .  S
C601        C602   1.211       .  T
C603        C604   1.213       .  T
C605        C606   1.359       .  D
C605        H607   1.089       .  S
C606        H608   1.088       .  S
C609        C610   1.359       .  D
C609        H611   1.087       .  S
C610        H612   1.088       .  S
C613        C614   1.196       .  T
C615        C616   1.195       .  T
C617        C618   1.356       .  D
C617        H619   1.086       .  S
C618        H620   1.087       .  S
C621        C622   1.361       .  D
C621        H623   1.088       .  S
C622        H624   1.088       .  S
C625        C626   1.194       .  T
C627        C628   1.212       .  T
C629        C630   1.212       .  T
C631        C632   1.359       .  D
C631        H633   1.086       .  S
C632        H634   1.086       .  S
C635        C636   1.355       .  D
C635        H637   1.086       .  S
C636        H638   1.086       .  S
C639        C640   1.202       .  T
C641        C642   1.200       .  T
C643        C644   1.196       .  T
C645        C646   1.192       .  T
C647        C648   1.193       .  T
C649        C650   1.357       .  D
C649        H651   1.087       .  S
C650        H652   1.086       .  S
C653        C654   1.360       .  D
C653        H655   1.086       .  S
C654        H656   1.087       .  S
C657        C658   1.357       .  D
C657        H659   1.086       .  S
C658        H660   1.086       .  S
C661        C662   1.358       .  D
C661        H663   1.088       .  S
C662        H664   1.088       .  S
C665        C666   1.361       .  D
C665        H667   1.086       .  S
C666        H668   1.086       .  S
C669        C670   1.361       .  D
C669        H671   1.085       .  S
C670        H672   1.085       .  S
C673        C674   1.193       .  T
C675        C676   1.209       .  T
C677        C678   1.211   1_565  T
C679        C680   1.358       .  D
C679        H681   1.086       .  S
C680        H682   1.087       .  S
C683        C684   1.356       .  D
C683        H685   1.086       .  S
C684        H686   1.086       .  S
C687        C688   1.194       .  T
C689        C690   1.191       .  T
C691        C692   1.194       .  T
C693        C694   1.197       .  T
C695        C696   1.199       .  T
O697       Cr715   2.023       .  S
O697        C705   1.272       .  A
O698       Cr715   1.989       .  S
O698        C699   1.249       .  A
C699        O700   1.244       .  A
C699       C1388   1.413       .  S
O700       Cr716   1.966       .  S
O701       Cr716   1.932       .  S
O701        C702   1.253       .  A
C702        O703   1.280       .  A
C702       C1385   1.413       .  S
O703       Cr717   2.038       .  S
O704       Cr717   1.990       .  S
O704        C705   1.261       .  A
C705       C1195   1.500       .  S
O706       Cr715   1.972       .  S
O706        C714   1.260       .  A
O707       Cr715   2.048       .  S
O707        C708   1.281       .  A
C708        O709   1.252       .  A
C708       C1389   1.412       .  S
O709       Cr716   1.926       .  S
O710       Cr716   1.970       .  S
O710        C711   1.246       .  A
C711        O712   1.252       .  A
C711       C1391   1.419       .  S
O712       Cr717   1.990       .  S
O713       Cr717   2.028       .  S
O713        C714   1.274       .  A
C714        C768   1.494       .  S
Cr715       O718   1.772       .  S
Cr716       O718   1.766       .  S
Cr717       O718   1.761       .  S
O719       Cr737   2.037   1_565  S
O719        C727   1.280       .  A
O720       Cr737   1.996       .  S
O720        C721   1.252       .  A
C721        O722   1.250       .  A
C721       C1372   1.444       .  S
O722       Cr738   1.982       .  S
O723       Cr738   1.989       .  S
O723        C724   1.264   1_545  A
C724        O725   1.258       .  A
C724       C1392   1.418       .  S
O726       Cr739   1.949       .  S
C727       C1379   1.491       .  S
O728        C736   1.253       .  A
O729        C730   1.281       .  A
C730       C1375   1.498       .  S
O731       Cr738   1.957       .  S
O732        C733   1.253       .  A
C733        O734   1.261       .  A
C733       C1384   1.405       .  S
O734       Cr739   1.985   1_545  S
O735       Cr739   1.983       .  S
O735        C736   1.251   1_565  A
C736       C1374   1.446       .  S
Cr737       O740   1.773       .  S
Cr738       O740   1.780       .  S
O741       Cr759   1.942       .  S
O741        C749   1.261       .  A
O742       Cr759   1.973       .  S
O742        C743   1.252       .  A
C743        O744   1.262       .  A
C743       C1390   1.419       .  S
O744       Cr760   1.995   1_565  S
O745       Cr760   1.973       .  S
O745        C746   1.250       .  A
C746        O747   1.256       .  A
C746       C1371   1.445       .  S
O747       Cr761   2.001       .  S
O748       Cr761   2.055   1_565  S
O748        C749   1.287       .  A
C749       C1365   1.491       .  S
O750       Cr759   1.971       .  S
O750        C758   1.245       .  A
O751       Cr759   1.982   1_545  S
O751        C752   1.263       .  A
C752        O753   1.257       .  A
C752       C1369   1.410       .  S
O753       Cr760   1.974       .  S
O754       Cr760   1.967       .  S
O754        C755   1.264       .  A
C755        O756   1.281       .  A
C755       C1362   1.497       .  S
O756       Cr761   2.040       .  S
O757       Cr761   2.006       .  S
O757        C758   1.253   1_545  A
C758       C1373   1.444   1_565  S
Cr759       O762   1.786   1_565  S
Cr760       O762   1.779       .  S
Cr761       O762   1.768       .  S
O763       Cr781   1.997       .  S
O763        C771   1.258       .  A
O764       Cr781   1.984       .  S
O764        C765   1.264       .  A
C765        O766   1.267       .  A
C765       C1380   1.479       .  S
O766       Cr782   2.010       .  S
O767       Cr782   2.005       .  S
O767        C768   1.265       .  A
C768        O769   1.266       .  A
O769       Cr783   2.013       .  S
O770       Cr783   1.999       .  S
O770        C771   1.267       .  A
C771       C1366   1.483       .  S
O772       Cr781   1.993       .  S
O772        C780   1.265       .  A
O773       Cr781   1.992       .  S
O773        C774   1.259       .  A
C774        O775   1.263       .  A
C774       C1357   1.479       .  S
O775       Cr782   1.992       .  S
O776       Cr782   2.020       .  S
O776        C777   1.265       .  A
C777        O778   1.267       .  A
C777        C824   1.493       .  S
O778       Cr783   1.998       .  S
O779       Cr783   2.009       .  S
O779        C780   1.265       .  A
C780       C1353   1.483       .  S
Cr781       O784   1.814       .  S
Cr782       O784   1.801       .  S
Cr783       O784   1.789       .  S
O785       Cr803   2.011       .  S
O785        C793   1.263       .  A
O786       Cr803   1.998       .  S
O786        C787   1.265       .  A
C787        O788   1.266       .  A
C787       C1345   1.489       .  S
O788       Cr804   2.014       .  S
O789       Cr804   2.000       .  S
O789        C790   1.265       .  A
C790        O791   1.266       .  A
C790       C1032   1.495       .  S
O791       Cr805   2.022       .  S
O792       Cr805   1.995       .  S
O792        C793   1.264       .  A
C793       C1350   1.490       .  S
O794       Cr803   1.995       .  S
O794        C802   1.265       .  A
O795       Cr803   2.018       .  S
O795        C796   1.264       .  A
C796        O797   1.265       .  A
C796       C1361   1.491       .  S
O797       Cr804   1.995       .  S
O798       Cr804   2.022       .  S
O798        C799   1.267       .  A
C799        O800   1.264       .  A
C799        C887   1.495       .  S
O800       Cr805   2.001       .  S
O801       Cr805   2.014       .  S
O801        C802   1.268       .  A
C802       C1376   1.488       .  S
Cr803       O806   1.815       .  S
Cr804       O806   1.793       .  S
Cr805       O806   1.800       .  S
O807       Cr825   1.990       .  S
O807        C815   1.261       .  A
O808       Cr825   2.033       .  S
O808        C809   1.275       .  A
C809        O810   1.252       .  A
C809       C1343   1.410       .  S
O810       Cr826   1.931       .  S
O811       Cr826   1.966       .  S
O811        C812   1.248       .  A
C812        O813   1.254       .  A
C812       C1342   1.413       .  S
O813       Cr827   1.989       .  S
O814       Cr827   2.029       .  S
O814        C815   1.275       .  A
C815       C1173   1.500       .  S
O816       Cr825   2.023       .  S
O816        C824   1.273       .  A
O817       Cr825   1.997       .  S
O817        C818   1.256       .  A
C818        O819   1.249       .  A
C818       C1337   1.419       .  S
O819       Cr826   1.966       .  S
O820       Cr826   1.930       .  S
O820        C821   1.251       .  A
C821        O822   1.278       .  A
C821       C1340   1.415       .  S
O822       Cr827   2.043       .  S
O823       Cr827   1.982       .  S
O823        C824   1.259       .  A
Cr825       O828   1.765       .  S
Cr826       O828   1.757       .  S
Cr827       O828   1.765       .  S
O829       Cr847   2.023   1_655  S
O829        C837   1.275       .  A
O830       Cr847   2.004       .  S
O830        C831   1.251       .  A
C831        O832   1.244       .  A
C831       C1325   1.442       .  S
O832       Cr848   1.975       .  S
O833       Cr848   2.004   1_655  S
O833        C834   1.272       .  A
C834        O835   1.262       .  A
C834       C1335   1.427       .  S
O836       Cr849   1.959       .  S
C837       C1328   1.486       .  S
O838        C846   1.256   1_455  A
O839        C840   1.286       .  A
C840       C1332   1.493       .  S
O841       Cr848   1.965       .  S
O842        C843   1.249       .  A
C843        O844   1.258       .  A
C843       C1344   1.413       .  S
O844       Cr849   1.987   1_455  S
O845       Cr849   1.971       .  S
O845        C846   1.251       .  A
C846       C1323   1.442       .  S
Cr847       O850   1.772       .  S
Cr848       O850   1.782       .  S
O851       Cr869   1.947       .  S
O851        C859   1.263       .  A
O852       Cr869   1.978       .  S
O852        C853   1.254       .  A
C853        O854   1.261       .  A
C853       C1321   1.415       .  S
O854       Cr870   1.986   1_655  S
O855       Cr870   1.981       .  S
O855        C856   1.253       .  A
C856        O857   1.254       .  A
C856       C1326   1.443       .  S
O857       Cr871   1.992       .  S
O858       Cr871   2.048   1_655  S
O858        C859   1.285       .  A
C859       C1313   1.490       .  S
O860       Cr869   1.978       .  S
O860        C868   1.247       .  A
O861       Cr869   1.985   1_455  S
O861        C862   1.264       .  A
C862        O863   1.259       .  A
C862       C1341   1.412       .  S
O863       Cr870   1.976       .  S
O864       Cr870   1.958       .  S
O864        C865   1.260       .  A
C865        O866   1.279       .  A
C865       C1318   1.493       .  S
O866       Cr871   2.036       .  S
O867       Cr871   1.998       .  S
O867        C868   1.251   1_455  A
C868       C1324   1.442       .  S
Cr869       O872   1.782   1_655  S
Cr870       O872   1.778       .  S
Cr871       O872   1.770       .  S
O873       Cr891   1.972       .  S
O873        C881   1.247       .  A
O874       Cr891   1.925       .  S
O874        C875   1.252       .  A
C875        O876   1.281       .  A
C875       C1311   1.412       .  S
O876       Cr892   2.049       .  S
O877       Cr892   1.973       .  S
O877        C878   1.259       .  A
C878        O879   1.273       .  A
C878        C953   1.492       .  S
O879       Cr893   2.026       .  S
O880       Cr893   1.986       .  S
O880        C881   1.251       .  A
C881       C1309   1.418       .  S
O882       Cr891   1.927       .  S
O882        C890   1.252       .  A
O883       Cr891   1.965       .  S
O883        C884   1.244       .  A
C884        O885   1.247       .  A
C884       C1383   1.407       .  S
O885       Cr892   1.981       .  S
O886       Cr892   2.026       .  S
O886        C887   1.273       .  A
C887        O888   1.259       .  A
O888       Cr893   1.979       .  S
O889       Cr893   2.040       .  S
O889        C890   1.279       .  A
C890       C1370   1.408       .  S
Cr891       O894   1.766       .  S
Cr892       O894   1.766       .  S
Cr893       O894   1.765       .  S
O895       Cr913   2.030       .  S
O895        C903   1.278       .  A
O896       Cr913   1.998       .  S
O896        C897   1.252       .  A
C897        O898   1.248   1_545  A
C897       C1298   1.444       .  S
O898       Cr914   1.977       .  S
O899       Cr914   1.984   1_545  S
O899        C900   1.265       .  A
C900        O901   1.261       .  A
C900       C1310   1.416       .  S
O901       Cr915   1.986       .  S
O902       Cr915   1.949       .  S
O902        C903   1.261       .  A
C903       C1305   1.483       .  S
O904       Cr913   1.994       .  S
O904        C912   1.253       .  A
O905       Cr913   2.045   1_565  S
O905        C906   1.283       .  A
C906        O907   1.262       .  A
C906       C1302   1.491       .  S
O907       Cr914   1.952       .  S
O908       Cr914   1.968       .  S
O908        C909   1.251       .  A
C909        O910   1.260   1_565  A
C909       C1387   1.412       .  S
O910       Cr915   1.991       .  S
O911       Cr915   1.975       .  S
O911        C912   1.250       .  A
C912       C1299   1.442       .  S
Cr913       O916   1.775       .  S
Cr914       O916   1.782   1_565  S
Cr915       O916   1.781       .  S
O917       Cr935   1.950       .  S
O918        C919   1.251       .  A
C919        O920   1.263       .  A
C919       C1312   1.416       .  S
O920       Cr936   1.996   1_545  S
O921       Cr936   1.976       .  S
O921        C922   1.251   1_565  A
C922        O923   1.256       .  A
C922       C1297   1.444       .  S
O923       Cr937   1.999       .  S
O924       Cr937   2.051       .  S
O924        C925   1.285       .  A
C925       C1294   1.495       .  S
O926       Cr935   1.976       .  S
O926        C934   1.247       .  A
O927       Cr935   1.984       .  S
O927        C928   1.265   1_545  A
C928        O929   1.259       .  A
C928       C1386   1.413       .  S
O930       Cr936   1.969       .  S
C931        O932   1.279       .  A
C931       C1289   1.495       .  S
O933        C934   1.251       .  A
C934       C1300   1.441       .  S
Cr936       O938   1.779   1_565  S
Cr937       O938   1.769       .  S
O939       Cr957   1.981       .  S
O939        C947   1.263       .  A
O940       Cr957   2.001       .  S
O940        C941   1.260       .  A
C941        O942   1.264       .  A
C941       C1327   1.482       .  S
O942       Cr958   1.993       .  S
O943       Cr958   2.028       .  S
O943        C944   1.268       .  A
C944        O945   1.265       .  A
C944        C978   1.496       .  S
O945       Cr959   1.998       .  S
O946       Cr959   2.012       .  S
O946        C947   1.267       .  A
C947       C1314   1.477       .  S
O948       Cr957   2.001       .  S
O948        C956   1.261       .  A
O949       Cr957   1.984       .  S
O949        C950   1.263       .  A
C950        O951   1.269       .  A
C950       C1293   1.483       .  S
O951       Cr958   2.018       .  S
O952       Cr958   1.988       .  S
O952        C953   1.264       .  A
C953        O954   1.266       .  A
O954       Cr959   2.028       .  S
O955       Cr959   1.989       .  S
O955        C956   1.263       .  A
C956       C1306   1.477       .  S
Cr957       O960   1.808       .  S
Cr958       O960   1.787       .  S
Cr959       O960   1.793       .  S
O961       Cr979   2.024       .  S
O961        C969   1.273       .  A
O962       Cr979   1.994       .  S
O962        C963   1.255       .  A
C963        O964   1.248       .  A
C963       C1287   1.417       .  S
O964       Cr980   1.964       .  S
O965       Cr980   1.930       .  S
O965        C966   1.251       .  A
C966        O967   1.274       .  A
C966       C1285   1.408       .  S
O967       Cr981   2.032       .  S
O968       Cr981   2.000       .  S
O968        C969   1.266       .  A
C969       C1217   1.504       .  S
O970       Cr979   1.999       .  S
O970        C978   1.263       .  A
O971       Cr979   2.034       .  S
O971        C972   1.275       .  A
C972        O973   1.251       .  A
C972       C1322   1.413       .  S
O973       Cr980   1.932       .  S
O974       Cr980   1.967       .  S
O974        C975   1.248       .  A
C975        O976   1.259       .  A
C975       C1336   1.429       .  S
O976       Cr981   2.012       .  S
O977       Cr981   2.013       .  S
O977        C978   1.269       .  A
Cr979       O982   1.764       .  S
Cr980       O982   1.761       .  S
Cr981       O982   1.768       .  S
O983      Cr1001   2.049       .  S
O983        C991   1.285       .  A
O984      Cr1001   1.993       .  S
O984        C985   1.255   1_455  A
C985        O986   1.255       .  A
C985       C1277   1.445       .  S
O986      Cr1002   1.984       .  S
O987      Cr1002   1.996   1_455  S
O987        C988   1.263       .  A
C988        O989   1.252       .  A
C988       C1339   1.420       .  S
O989      Cr1003   1.976       .  S
O990      Cr1003   1.956       .  S
O990        C991   1.264       .  A
C991       C1354   1.497       .  S
O992      Cr1001   1.999       .  S
O992       C1000   1.249       .  A
O993      Cr1001   2.027   1_655  S
O993        C994   1.276       .  A
C994        O995   1.263       .  A
C994       C1281   1.496       .  S
O995      Cr1002   1.972       .  S
O996      Cr1002   1.976       .  S
O996        C997   1.260       .  A
C997        O998   1.267   1_655  A
C997       C1288   1.415       .  S
O998      Cr1003   1.991       .  S
O999      Cr1003   1.980       .  S
O999       C1000   1.247       .  A
C1000      C1279   1.444       .  S
Cr1001     O1004   1.771       .  S
Cr1002     O1004   1.773   1_655  S
Cr1003     O1004   1.785       .  S
O1005     Cr1023   1.960       .  S
O1006      C1007   1.261       .  A
C1007      O1008   1.268       .  A
C1007      C1338   1.417       .  S
O1008     Cr1024   1.993   1_455  S
O1009     Cr1024   1.972       .  S
O1009      C1010   1.243       .  A
C1010      O1011   1.251   1_655  A
C1010      C1278   1.444       .  S
O1011     Cr1025   2.007       .  S
O1012     Cr1025   2.024       .  S
O1012      C1013   1.276       .  A
C1013      C1358   1.483       .  S
O1014     Cr1023   1.977       .  S
O1014      C1022   1.253       .  A
O1015     Cr1023   1.988   1_655  S
O1015      C1016   1.260       .  A
C1016      O1017   1.250   1_556  A
C1016      C1286   1.414       .  S
O1018     Cr1024   1.955       .  S
C1019      O1020   1.288   1_556  A
C1019      C1273   1.496       .  S
O1021      C1022   1.257       .  A
C1022      C1280   1.444       .  S
Cr1024     O1026   1.785   1_655  S
Cr1025     O1026   1.770       .  S
O1027     Cr1045   1.930       .  S
O1027      C1035   1.251       .  A
O1028     Cr1045   1.966       .  S
O1028      C1029   1.249       .  A
C1029      O1030   1.256       .  A
C1029      C1267   1.418       .  S
O1030     Cr1046   1.997       .  S
O1031     Cr1046   2.018       .  S
O1031      C1032   1.271       .  A
C1032      O1033   1.262       .  A
O1033     Cr1047   1.994       .  S
O1034     Cr1047   2.043       .  S
O1034      C1035   1.278       .  A
C1035      C1265   1.416       .  S
O1036     Cr1045   1.964       .  S
O1036      C1044   1.248       .  A
O1037     Cr1045   1.928       .  S
O1037      C1038   1.250       .  A
C1038      O1039   1.274       .  A
C1038      C1271   1.407       .  S
O1039     Cr1046   2.034       .  S
O1040     Cr1046   1.982       .  S
O1040      C1041   1.261       .  A
C1041      O1042   1.276       .  A
C1041      C1208   1.497       .  S
O1042     Cr1047   2.032       .  S
O1043     Cr1047   1.995       .  S
O1043      C1044   1.256       .  A
C1044      C1269   1.416       .  S
Cr1045     O1048   1.756       .  S
Cr1046     O1048   1.769       .  S
Cr1047     O1048   1.760       .  S
O1049     Cr1067   2.027       .  S
O1049      C1057   1.276       .  A
O1050     Cr1067   2.005       .  S
O1050      C1051   1.250       .  A
C1051      O1052   1.247       .  A
C1051      C1262   1.448       .  S
O1052     Cr1068   1.982       .  S
O1053     Cr1068   1.987       .  S
O1053      C1054   1.266       .  A
C1054      O1055   1.259       .  A
C1054      C1255   1.412       .  S
O1055     Cr1069   1.974       .  S
O1056     Cr1069   1.965       .  S
O1056      C1057   1.261       .  A
C1057      C1258   1.493       .  S
O1058     Cr1067   1.998       .  S
O1058      C1066   1.257       .  A
O1059     Cr1067   2.053       .  S
O1059      C1060   1.287       .  A
C1060      O1061   1.267       .  A
C1060      C1346   1.499       .  S
O1061     Cr1068   1.964       .  S
O1062     Cr1068   1.976       .  S
O1062      C1063   1.251       .  A
C1063      O1064   1.261       .  A
C1063      C1266   1.419       .  S
O1064     Cr1069   1.992       .  S
O1065     Cr1069   1.975       .  S
O1065      C1066   1.253       .  A
C1066      C1263   1.444       .  S
Cr1067     O1070   1.768       .  S
Cr1068     O1070   1.783       .  S
Cr1069     O1070   1.778       .  S
O1071     Cr1089   1.964       .  S
O1072      C1073   1.260       .  A
C1073      O1074   1.268       .  A
C1073      C1268   1.417       .  S
O1074     Cr1090   1.995       .  S
O1075     Cr1090   1.976       .  S
O1075      C1076   1.244       .  A
C1076      O1077   1.250       .  A
C1076      C1264   1.443       .  S
O1078      C1079   1.277       .  A
C1079      C1349   1.493       .  S
O1080     Cr1089   1.979       .  S
O1080      C1088   1.253       .  A
O1081     Cr1089   1.989       .  S
O1081      C1082   1.260       .  A
C1082      O1083   1.253       .  A
C1082      C1249   1.418       .  S
O1084     Cr1090   1.961       .  S
C1085      O1086   1.288       .  A
C1085      C1251   1.494       .  S
O1086     Cr1091   2.056       .  S
O1087     Cr1091   2.002       .  S
O1087      C1088   1.258       .  A
C1088      C1261   1.448       .  S
Cr1089     O1092   1.777       .  S
Cr1091     O1092   1.769       .  S
O1093     Cr1111   1.929       .  S
O1093      C1101   1.257       .  A
O1094     Cr1111   1.970       .  S
O1094      C1095   1.241       .  A
C1095      O1096   1.247       .  A
C1095      C1250   1.417       .  S
O1096     Cr1112   1.991       .  S
O1097     Cr1112   2.027       .  S
O1097      C1098   1.273       .  A
C1098      O1099   1.260       .  A
C1098      C1164   1.497       .  S
O1099     Cr1113   1.977       .  S
O1100     Cr1113   2.044       .  S
O1100      C1101   1.284       .  A
C1101      C1256   1.409       .  S
O1102     Cr1111   1.970       .  S
O1102      C1110   1.241       .  A
O1103     Cr1111   1.926       .  S
O1103      C1104   1.256       .  A
C1104      O1105   1.288       .  A
C1104      C1248   1.416       .  S
O1105     Cr1112   2.058       .  S
O1106     Cr1112   1.976       .  S
O1106      C1107   1.260       .  A
C1107      O1108   1.270       .  A
C1107      C1186   1.492       .  S
O1108     Cr1113   2.020       .  S
O1109     Cr1113   1.985       .  S
O1109      C1110   1.247       .  A
C1110      C1246   1.414       .  S
Cr1111     O1114   1.767       .  S
Cr1112     O1114   1.763       .  S
Cr1113     O1114   1.763       .  S
O1115     Cr1133   2.053   1_556  S
O1115      C1123   1.288       .  A
O1116     Cr1133   1.997   1_556  S
O1116      C1117   1.258       .  A
C1117      O1118   1.255       .  A
C1117      C1234   1.446       .  S
O1118     Cr1134   1.982       .  S
O1119     Cr1134   1.994       .  S
O1119      C1120   1.260       .  A
C1120      O1121   1.247   1_556  A
C1120      C1272   1.413       .  S
O1122     Cr1135   1.962       .  S
C1123      C1241   1.498       .  S
O1124      C1132   1.249       .  A
O1125      C1126   1.274       .  A
C1126      C1237   1.490       .  S
O1127     Cr1134   1.970       .  S
O1128      C1129   1.262       .  A
C1129      O1130   1.272       .  A
C1129      C1247   1.419       .  S
O1130     Cr1135   1.995       .  S
O1131     Cr1135   1.972       .  S
O1131      C1132   1.241       .  A
C1132      C1235   1.442       .  S
Cr1133     O1136   1.768       .  S
Cr1134     O1136   1.773   1_556  S
O1137     Cr1155   1.955       .  S
O1137      C1145   1.265       .  A
O1138     Cr1155   1.974       .  S
O1138      C1139   1.252       .  A
C1139      O1140   1.259       .  A
C1139      C1245   1.413       .  S
O1140     Cr1156   1.988       .  S
O1141     Cr1156   1.983       .  S
O1141      C1142   1.256       .  A
C1142      O1143   1.256       .  A
C1142      C1236   1.443       .  S
O1143     Cr1157   1.991       .  S
O1144     Cr1157   2.060       .  S
O1144      C1145   1.289       .  A
C1145      C1226   1.499       .  S
O1146     Cr1155   1.981       .  S
O1146      C1154   1.246       .  A
O1147     Cr1155   1.988       .  S
O1147      C1148   1.267       .  A
C1148      O1149   1.262       .  A
C1148      C1270   1.415       .  S
O1149     Cr1156   1.979       .  S
O1150     Cr1156   1.963       .  S
O1150      C1151   1.259       .  A
C1151      O1152   1.277       .  A
C1151      C1230   1.495       .  S
O1152     Cr1157   2.034       .  S
O1153     Cr1157   2.005       .  S
O1153      C1154   1.250       .  A
C1154      C1233   1.445       .  S
Cr1155     O1158   1.782       .  S
Cr1156     O1158   1.775       .  S
Cr1157     O1158   1.768       .  S
O1159     Cr1177   2.009       .  S
O1159      C1167   1.262       .  A
O1160     Cr1177   1.987       .  S
O1160      C1161   1.263       .  A
C1161      O1162   1.266       .  A
C1161      C1257   1.482       .  S
O1162     Cr1178   2.011       .  S
O1163     Cr1178   1.996       .  S
O1163      C1164   1.267       .  A
C1164      O1165   1.265       .  A
O1165     Cr1179   2.026       .  S
O1166     Cr1179   1.996       .  S
O1166      C1167   1.265       .  A
C1167      C1252   1.487       .  S
O1168     Cr1177   1.986       .  S
O1168      C1176   1.263       .  A
O1169     Cr1177   2.009       .  S
O1169      C1170   1.262       .  A
C1170      O1171   1.265       .  A
C1170      C1317   1.487       .  S
O1171     Cr1178   1.995       .  S
O1172     Cr1178   2.021       .  S
O1172      C1173   1.265       .  A
C1173      O1174   1.268       .  A
O1174     Cr1179   2.007       .  S
O1175     Cr1179   2.011       .  S
O1175      C1176   1.267       .  A
C1176      C1331   1.482       .  S
Cr1177     O1180   1.816       .  S
Cr1178     O1180   1.793       .  S
Cr1179     O1180   1.796       .  S
O1181     Cr1199   1.992       .  S
O1181      C1189   1.264       .  A
O1182     Cr1199   2.008       .  S
O1182      C1183   1.263       .  A
C1183      O1184   1.265       .  A
C1183      C1238   1.488       .  S
O1184     Cr1200   1.996       .  S
O1185     Cr1200   2.017       .  S
O1185      C1186   1.267       .  A
C1186      O1187   1.265       .  A
O1187     Cr1201   2.001       .  S
O1188     Cr1201   2.017       .  S
O1188      C1189   1.268       .  A
C1189      C1225   1.488       .  S
O1190     Cr1199   2.009       .  S
O1190      C1198   1.263       .  A
O1191     Cr1199   1.991       .  S
O1191      C1192   1.264       .  A
C1192      O1193   1.266       .  A
C1192      C1290   1.485       .  S
O1193     Cr1200   2.012       .  S
O1194     Cr1200   2.001       .  S
O1194      C1195   1.266       .  A
C1195      O1196   1.267       .  A
O1196     Cr1201   2.029       .  S
O1197     Cr1201   1.990       .  S
O1197      C1198   1.264       .  A
C1198      C1301   1.483       .  S
Cr1199     O1202   1.814       .  S
Cr1200     O1202   1.792       .  S
Cr1201     O1202   1.797       .  S
O1203     Cr1221   2.007       .  S
O1203      C1211   1.261       .  A
O1204     Cr1221   1.997       .  S
O1204      C1205   1.264       .  A
C1205      O1206   1.266       .  A
C1205      C1242   1.488       .  S
O1206     Cr1222   2.011       .  S
O1207     Cr1222   2.001       .  S
O1207      C1208   1.267       .  A
C1208      O1209   1.265       .  A
O1209     Cr1223   2.021       .  S
O1210     Cr1223   2.001       .  S
O1210      C1211   1.265       .  A
C1211      C1229   1.491       .  S
O1212     Cr1221   1.993       .  S
O1212      C1220   1.265       .  A
O1213     Cr1221   2.012       .  S
O1213      C1214   1.262       .  A
C1214      O1215   1.264       .  A
C1214      C1274   1.489       .  S
O1215     Cr1222   1.993       .  S
O1216     Cr1222   2.019       .  S
O1216      C1217   1.266       .  A
C1217      O1218   1.268       .  A
O1218     Cr1223   2.014       .  S
O1219     Cr1223   2.011       .  S
O1219      C1220   1.267       .  A
C1220      C1282   1.487       .  S
Cr1221     O1224   1.820       .  S
Cr1222     O1224   1.795       .  S
Cr1223     O1224   1.803       .  S
C1225      C1226   1.360       .  D
C1225      H1227   1.086       .  S
C1226      H1228   1.086       .  S
C1229      C1230   1.362       .  D
C1229      H1231   1.087       .  S
C1230      H1232   1.086       .  S
C1233      C1234   1.212       .  T
C1235      C1236   1.211       .  T
C1237      C1238   1.358       .  D
C1237      H1239   1.086       .  S
C1238      H1240   1.086       .  S
C1241      C1242   1.358       .  D
C1241      H1243   1.086       .  S
C1242      H1244   1.086       .  S
C1245      C1246   1.194       .  T
C1247      C1248   1.198       .  T
C1249      C1250   1.196       .  T
C1251      C1252   1.361       .  D
C1251      H1253   1.085       .  S
C1252      H1254   1.086       .  S
C1255      C1256   1.193       .  T
C1257      C1258   1.356       .  D
C1257      H1259   1.086       .  S
C1258      H1260   1.086       .  S
C1261      C1262   1.214       .  T
C1263      C1264   1.211       .  T
C1265      C1266   1.197       .  T
C1267      C1268   1.197       .  T
C1269      C1270   1.196       .  T
C1271      C1272   1.193       .  T
C1273      C1274   1.361       .  D
C1273      H1275   1.087       .  S
C1274      H1276   1.087       .  S
C1277      C1278   1.212       .  T
C1279      C1280   1.211       .  T
C1281      C1282   1.356       .  D
C1281      H1283   1.086       .  S
C1282      H1284   1.086       .  S
C1285      C1286   1.193       .  T
C1287      C1288   1.196       .  T
C1289      C1290   1.358       .  D
C1289      H1291   1.086       .  S
C1290      H1292   1.087       .  S
C1293      C1294   1.359       .  D
C1293      H1295   1.087       .  S
C1294      H1296   1.086       .  S
C1297      C1298   1.212       .  T
C1299      C1300   1.210       .  T
C1301      C1302   1.359       .  D
C1301      H1303   1.089       .  S
C1302      H1304   1.088       .  S
C1305      C1306   1.358       .  D
C1305      H1307   1.087       .  S
C1306      H1308   1.088       .  S
C1309      C1310   1.196       .  T
C1311      C1312   1.196       .  T
C1313      C1314   1.356       .  D
C1313      H1315   1.086       .  S
C1314      H1316   1.087       .  S
C1317      C1318   1.361       .  D
C1317      H1319   1.088       .  S
C1318      H1320   1.088       .  S
C1321      C1322   1.195       .  T
C1323      C1324   1.210       .  T
C1325      C1326   1.211       .  T
C1327      C1328   1.359       .  D
C1327      H1329   1.086       .  S
C1328      H1330   1.086       .  S
C1331      C1332   1.356       .  D
C1331      H1333   1.086       .  S
C1332      H1334   1.086       .  S
C1335      C1336   1.204       .  T
C1337      C1338   1.197       .  T
C1339      C1340   1.197       .  T
C1341      C1342   1.194       .  T
C1343      C1344   1.193       .  T
C1345      C1346   1.358       .  D
C1345      H1347   1.087       .  S
C1346      H1348   1.086       .  S
C1349      C1350   1.359       .  D
C1349      H1351   1.087       .  S
C1350      H1352   1.087       .  S
C1353      C1354   1.359       .  D
C1353      H1355   1.086       .  S
C1354      H1356   1.086       .  S
C1357      C1358   1.357       .  D
C1357      H1359   1.087       .  S
C1358      H1360   1.087       .  S
C1361      C1362   1.362       .  D
C1361      H1363   1.085       .  S
C1362      H1364   1.084       .  S
C1365      C1366   1.364       .  D
C1365      H1367   1.085       .  S
C1366      H1368   1.085       .  S
C1369      C1370   1.192       .  T
C1371      C1372   1.212       .  T
C1373      C1374   1.212       .  T
C1375      C1376   1.358       .  D
C1375      H1377   1.086       .  S
C1376      H1378   1.086       .  S
C1379      C1380   1.356       .  D
C1379      H1381   1.086       .  S
C1380      H1382   1.086       .  S
C1383      C1384   1.190       .  T
C1385      C1386   1.194       .  T
C1387      C1388   1.194       .  T
C1389      C1390   1.196       .  T
C1391      C1392   1.197       .  T
