geometry optimzed in LAMMPS
_audit_creation_date              2020-11-30 
_audit_creation_method            'lammps2cif' 
_symmetry_space_group_name_H-M    'P1' 
_symmetry_Int_Tables_number       1 
_symmetry_cell_setting            triclinic 
loop_ 
_symmetry_equiv_pos_as_xyz 
  x,y,z 
_cell_length_a                    34.82640593705731 
_cell_length_b                    34.97304420505124 
_cell_length_c                    26.64446870307664 
_cell_angle_alpha                 90.09791338799207 
_cell_angle_beta                  89.95130359396694 
_cell_angle_gamma                 120.32743261090015 
loop_ 
_atom_site_label 
_atom_site_type_symbol 
_atom_site_fract_x 
_atom_site_fract_y 
_atom_site_fract_z 
_atom_site_charge 
C1          C  0.75605838  0.47961890  0.49939185     0.00230
C2          C  0.72047051  0.48638578  0.00311864     0.00230
C3          C  0.49131557  0.25282987  0.99762393     0.00230
C4          C  0.48121388  0.20942002  0.00074068     0.00230
C5          C  0.72295861  0.20576750  0.00735135     0.00230
C6          C  0.76159325  0.24644356  0.50601956     0.00230
C7          C  0.50760457  0.76164307  0.00136177     0.00230
C8          C  0.50833011  0.72281590  0.00219812     0.00230
C9          C  0.21303801  0.47013252  0.50374487     0.00230
C10         C  0.24836750  0.46319873  0.00046902     0.00230
C11         C  0.26272674  0.74970238  0.00385051     0.00230
C12         C  0.22522773  0.70897619  0.50141172     0.00230
O13         O  0.91457036  0.37289716  0.35665485    -0.75630
O14         O  0.86109635  0.37882776  0.31462766    -0.54540
C15         C  0.87364214  0.36094637  0.34808583     0.78100
O16         O  0.06790361  0.59431285  0.35337935    -0.60230
O17         O  0.11853908  0.58567541  0.30758985    -0.53260
C18         C  0.10806362  0.60474891  0.34201724     0.70120
O19         O  0.91687069  0.52245373  0.35707890    -0.74790
O20         O  0.86394906  0.46460401  0.31121952    -0.55350
C21         C  0.87606642  0.49437382  0.34557062     0.76120
O22         O  0.06361389  0.44342230  0.35268172    -0.59930
O23         O  0.11620248  0.50317641  0.30873736    -0.53050
C24         C  0.10404027  0.47295868  0.34250225     0.72710
Zr25       Zr  0.98907246  0.42528996  0.32751963     2.54710
O26         O  0.99154660  0.42571103  0.41883865    -0.80500
O27         O  0.98737687  0.35493739  0.32220256    -0.93910
Zr28       Zr  0.99139522  0.54027096  0.32882561     2.64680
O29         O  0.99207093  0.53953289  0.42024857    -0.98870
O30         O  0.99472466  0.61143543  0.32520252    -0.80930
O31         O  0.94721834  0.46174014  0.33049218    -0.84290
O32         O  0.03307559  0.50350382  0.32750307    -2.19000
O33         O  0.05782440  0.43990023  0.15367388    -0.67680
O34         O  0.11369193  0.49838798  0.19478313    -0.52240
C35         C  0.09913839  0.46685978  0.16198853     0.71090
O36         O  0.91409756  0.50845261  0.14787524    -0.60580
O37         O  0.85967243  0.45400365  0.19536926    -0.52560
C38         C  0.87315957  0.47922466  0.15657682     0.72900
O39         O  0.06313855  0.59037774  0.15041923    -0.71980
O40         O  0.11632369  0.58415753  0.19283219    -0.50660
C41         C  0.10385616  0.60168539  0.15871708     0.74280
O42         O  0.90965033  0.36955608  0.15518869    -0.67310
O43         O  0.85881783  0.37816175  0.20049903    -0.54510
C44         C  0.86966878  0.35931701  0.16633124     0.72660
Zr45       Zr  0.98492391  0.42373322  0.18037972     2.77540
O46         O  0.98198839  0.42600158  0.08909286    -0.98060
O47         O  0.98117290  0.35234901  0.18166589    -0.78880
Zr48       Zr  0.98885636  0.53931313  0.18208579     2.70070
O49         O  0.99500504  0.55801470  0.09344194    -0.80130
O50         O  0.98395058  0.60525161  0.19806680    -0.99210
Zr51       Zr  0.90250206  0.43997542  0.25662046     2.21500
Zr52       Zr  0.07523058  0.52345725  0.25143249     2.11130
O53         O  0.02972174  0.50194253  0.17817906    -2.47900
O54         O  0.94443010  0.46108452  0.18099525    -0.79920
O55         O  0.03108847  0.44454921  0.25242097    -0.72120
O56         O  0.94569702  0.51927110  0.25618532    -2.33070
O57         O  0.94311163  0.40189667  0.25541243    -2.29280
O58         O  0.03471335  0.56197796  0.25414066    -0.73870
H59         H  0.05241152  0.51273208  0.35643441     0.78120
H60         H  0.92682246  0.53213331  0.25612218     0.79210
H61         H  0.04759309  0.51036021  0.14806978     0.81440
H62         H  0.92339106  0.37017664  0.25579215     0.79040
H63         H  0.96912899  0.60606937  0.30402990     0.42080
H64         H  0.01467727  0.62835144  0.20693731     0.41050
H65         H  0.00585451  0.53962992  0.07746721     0.40730
H66         H  0.01197917  0.44962524  0.07862041     0.38660
H67         H  0.00115139  0.35482007  0.20946437     0.41790
H68         H  0.95895552  0.33456121  0.30520335     0.36580
H69         H  0.97854295  0.44400528  0.42905759     0.42690
H70         H  0.01690792  0.53474046  0.42922580     0.39110
H71         H  0.98006813  0.39812946  0.07771056     0.44030
H72         H  0.98293164  0.34419114  0.35727159     0.42750
H73         H  0.00252169  0.57056767  0.43015894     0.42890
H74         H  0.97882233  0.61409802  0.16458655     0.43240
O75         O  0.46389510  0.38110979  0.14690671    -0.75630
O76         O  0.52033967  0.38455227  0.19349760    -0.54540
C77         C  0.49418343  0.37105671  0.15530655     0.78100
O78         O  0.52419771  0.59242611  0.15349593    -0.60230
O79         O  0.46514201  0.58736686  0.19573698    -0.53260
C80         C  0.49595383  0.60507274  0.16218708     0.70120
O81         O  0.60109380  0.52070108  0.15177545    -0.74790
O82         O  0.59565631  0.46326016  0.19821037    -0.55350
C83         C  0.61282804  0.49226662  0.16306550     0.76120
O84         O  0.37739633  0.44217119  0.15026369    -0.59930
O85         O  0.38436622  0.50305424  0.19074864    -0.53050
C86         C  0.36689513  0.47208323  0.15752465     0.72710
Zr87       Zr  0.43189636  0.42372968  0.18086376     2.54710
O88         O  0.41551677  0.41326628  0.09150924    -0.80500
O89         O  0.36689282  0.35108371  0.19566555    -0.93910
Zr90       Zr  0.54568278  0.53947939  0.17947880     2.64680
O91         O  0.54588279  0.53868416  0.08802609    -0.98870
O92         O  0.61501830  0.61022572  0.18347692    -0.80930
O93         O  0.51063416  0.46136260  0.17924553    -0.84290
O94         O  0.46689847  0.50209324  0.17825872    -2.19000
O95         O  0.37456607  0.44235395  0.34990572    -0.67680
O96         O  0.37865504  0.49983503  0.30550958    -0.52240
C97         C  0.36071416  0.46928450  0.33907769     0.71090
O98         O  0.60044284  0.52449465  0.35558098    -0.60580
O99         O  0.59530564  0.46624771  0.31187482    -0.52560
C100        C  0.61303047  0.49650787  0.34570752     0.72900
O101        O  0.52451847  0.59504348  0.35303865    -0.71980
O102        O  0.46258407  0.58446697  0.31116395    -0.50660
C103        C  0.49361488  0.60393231  0.34420121     0.74280
O104        O  0.45265095  0.37090205  0.35448404    -0.67310
O105        O  0.51195542  0.37886320  0.30935632    -0.54510
C106        C  0.48169042  0.35972571  0.34316608     0.72660
Zr107      Zr  0.43211526  0.42522559  0.32747446     2.77540
O108        O  0.43345387  0.42777340  0.41888528    -0.98060
O109        O  0.36271605  0.35452369  0.32555309    -0.78880
Zr110      Zr  0.54469278  0.54116100  0.32644356     2.70070
O111        O  0.54427191  0.54265802  0.41779388    -0.80130
O112        O  0.61430204  0.61133133  0.31956300    -0.99210
Zr113      Zr  0.53328250  0.44170163  0.25438311     2.21500
Zr114      Zr  0.44379104  0.52421963  0.25182157     2.11130
O115        O  0.46594572  0.50355042  0.32715374    -2.47900
O116        O  0.51093019  0.46287178  0.32886970    -0.79920
O117        O  0.40828178  0.44507599  0.25350880    -0.72120
O118        O  0.56906688  0.52052587  0.25378313    -2.33070
O119        O  0.45373846  0.40216084  0.25440992    -2.29280
O120        O  0.52330158  0.56255404  0.25210365    -0.73870
H121        H  0.45770999  0.51073764  0.14827244     0.78120
H122        H  0.60105093  0.53396333  0.25402592     0.79210
H123        H  0.45602612  0.51252190  0.35637381     0.81440
H124        H  0.44183093  0.37051888  0.25433013     0.79040
H125        H  0.63595664  0.60388703  0.20167050     0.42080
H126        H  0.60704671  0.63005111  0.29835417     0.41050
H127        H  0.52667929  0.51111050  0.42770228     0.40730
H128        H  0.43484254  0.45598187  0.42758679     0.38660
H129        H  0.34460228  0.35824185  0.29951282     0.41790
H130        H  0.37728420  0.32989227  0.18919920     0.36580
H131        H  0.43369329  0.44321806  0.07687172     0.42690
H132        H  0.51543840  0.53116420  0.07820548     0.39110
H133        H  0.40320962  0.40450196  0.42909883     0.44030
H134        H  0.34676102  0.34669182  0.16724136     0.42750
H135        H  0.56494652  0.57011445  0.07825946     0.42890
H136        H  0.61917217  0.62461928  0.35347911     0.43240
O137        O  0.60447581  0.06339537  0.15603146    -0.75630
O138        O  0.59306623  0.11364205  0.19824282    -0.54540
C139        C  0.61481169  0.10334665  0.16742814     0.78100
O140        O  0.37514883  0.90096515  0.15579317    -0.60230
O141        O  0.38890272  0.85243934  0.19845276    -0.53260
C142        C  0.36744702  0.86157394  0.16588887     0.70120
O143        O  0.44415258  0.05089417  0.14922008    -0.74790
O144        O  0.50423548  0.10562807  0.19112062    -0.55350
C145        C  0.47326008  0.09180852  0.15776526     0.76120
O146        O  0.52932700  0.91457066  0.14591013    -0.59930
O147        O  0.47366056  0.86023045  0.19321035    -0.53050
C148        C  0.50189625  0.87384801  0.15679496     0.72710
Zr149      Zr  0.54741951  0.98724160  0.17657408     2.54710
O150        O  0.54769215  0.99230255  0.08542939    -0.80500
O151        O  0.61551785  0.98392276  0.17863250    -0.93910
Zr152      Zr  0.42854170  0.97824397  0.17916369     2.64680
O153        O  0.42710235  0.97610444  0.08774140    -0.98870
O154        O  0.35641515  0.97330842  0.18539767    -0.80930
O155        O  0.50730994  0.02549131  0.17583692    -0.84290
O156        O  0.46892281  0.94046802  0.17815153    -2.19000
O157        O  0.53400273  0.91630832  0.35322650    -0.67680
O158        O  0.47685745  0.86040390  0.31035523    -0.52240
C159        C  0.50757933  0.87505955  0.34425111     0.71090
O160        O  0.45144168  0.05499559  0.35532358    -0.60580
O161        O  0.50592495  0.10839150  0.30670055    -0.52560
C162        C  0.47821852  0.09570308  0.34336406     0.72900
O163        O  0.38004516  0.90661916  0.35383845    -0.71980
O164        O  0.38949358  0.85569171  0.31090153    -0.50660
C165        C  0.37016210  0.86655061  0.34455753     0.74280
O166        O  0.60172055  0.06350390  0.34898601    -0.67310
O167        O  0.59084804  0.11406313  0.30675154    -0.54510
C168        C  0.61032403  0.10312727  0.34006932     0.72660
Zr169      Zr  0.54959876  0.98830099  0.32397862     2.77540
O170        O  0.55207092  0.99282819  0.41532155    -0.98060
O171        O  0.62149563  0.99274581  0.31812125    -0.78880
Zr172      Zr  0.43242723  0.98136606  0.32646473     2.70070
O173        O  0.43232333  0.98065176  0.41782906    -0.80130
O174        O  0.36166567  0.97943662  0.32221721    -0.99210
Zr175      Zr  0.52876222  0.06934965  0.25029176     2.21500
Zr176      Zr  0.45110328  0.89784235  0.25341327     2.11130
O177        O  0.47148979  0.94210448  0.32748462    -2.47900
O178        O  0.51069660  0.02762677  0.32574647    -0.79920
O179        O  0.53006630  0.94394239  0.25074412    -0.72120
O180        O  0.44956438  0.02359594  0.25198170    -2.33070
O181        O  0.56922651  0.03104805  0.25003836    -2.29280
O182        O  0.41010337  0.93585875  0.25387276    -0.73870
H183        H  0.45960279  0.92150585  0.14899726     0.78120
H184        H  0.43549377  0.04135127  0.25229482     0.79210
H185        H  0.46340824  0.92397167  0.35727959     0.81440
H186        H  0.60096540  0.05125915  0.25022719     0.79040
H187        H  0.36103818  0.99693961  0.20933665     0.42080
H188        H  0.34207246  0.95244451  0.30252757     0.41050
H189        H  0.46410829  0.99441550  0.42714520     0.40730
H190        H  0.52602156  0.96483787  0.42690707     0.38660
H191        H  0.61622555  0.96797358  0.29565915     0.41790
H192        H  0.63475323  0.00686550  0.20326972     0.36580
H193        H  0.52959022  0.00617992  0.07813495     0.42690
H194        H  0.43499472  0.95347556  0.07859606     0.39110
H195        H  0.57814680  0.99028044  0.42489287     0.44030
H196        H  0.62974087  0.99581905  0.14571384     0.42750
H197        H  0.39524702  0.96247844  0.07883490     0.42890
H198        H  0.34978085  0.97220918  0.35683782     0.43240
C199        C  0.30579478  0.76270844  0.42395245    -0.09490
C200        C  0.28382203  0.77614143  0.45748210     0.06710
C201        C  0.28435351  0.81595528  0.44765830    -0.03260
C202        C  0.31047308  0.84343329  0.40867147    -0.07710
C203        C  0.33571492  0.83176149  0.37758018     0.05820
C204        C  0.33053504  0.78923324  0.38358897    -0.02730
Br205      Br  0.35632570  0.76470090  0.33970746    -0.02430
H206        H  0.30551110  0.73225100  0.43022472     0.09730
H207        H  0.31174421  0.87477524  0.40355492     0.07750
Br208      Br  0.24962871  0.83461330  0.98500724    -0.02860
C209        C  0.26679472  0.78985513  0.08408182    -0.09490
C210        C  0.28463608  0.77024423  0.05275369     0.06710
C211        C  0.32578565  0.77441475  0.06598836    -0.03260
C212        C  0.34891699  0.79936804  0.10804117    -0.07710
C213        C  0.33461568  0.82477631  0.13402909     0.05820
C214        C  0.29221342  0.81844396  0.12321377    -0.02730
Br215      Br  0.26799386  0.84814371  0.16080260    -0.02430
H216        H  0.23429430  0.78533131  0.07609643     0.09730
H217        H  0.38027254  0.80193703  0.11783843     0.07750
Br218      Br  0.35372458  0.74938248  0.02642220    -0.02860
C219        C  0.17907438  0.63177165  0.38859374    -0.09490
C220        C  0.14437469  0.63870708  0.37379761     0.06710
C221        C  0.14261105  0.67497159  0.39452017    -0.03260
C222        C  0.17179669  0.69996171  0.43328279    -0.07710
C223        C  0.20287259  0.68936718  0.45234105     0.05820
C224        C  0.20819182  0.65670435  0.42736339    -0.02730
Br225      Br  0.25433367  0.64436075  0.44389492    -0.02430
H226        H  0.18221149  0.60525835  0.37178592     0.09730
H227        H  0.16907641  0.72678542  0.44982464     0.07750
Br228      Br  0.10148377  0.69219418  0.37099542    -0.02860
C229        C  0.17832757  0.63537035  0.11758088    -0.09490
C230        C  0.13812415  0.63506453  0.12431898     0.06710
C231        C  0.13024171  0.66388887  0.09440791    -0.03260
C232        C  0.16040233  0.68912082  0.05677576    -0.07710
C233        C  0.19874104  0.68667870  0.04746437     0.05820
C234        C  0.20847260  0.66079457  0.07984283    -0.02730
Br235      Br  0.26114281  0.65708513  0.07439551    -0.02430
H236        H  0.18563449  0.61417114  0.14031644     0.09730
H237        H  0.15331104  0.71038367  0.03400869     0.07750
Br238      Br  0.07946163  0.67129634  0.10209923    -0.02860
C239        C  0.29980012  0.42656866  0.39985145    -0.09490
C240        C  0.32295262  0.46493238  0.37032824     0.06710
C241        C  0.31303391  0.49927966  0.37731264    -0.03260
C242        C  0.28650102  0.49743238  0.41819093    -0.07710
C243        C  0.26773400  0.46092271  0.45096171     0.05820
C244        C  0.27255850  0.42429519  0.43938730    -0.02730
Br245      Br  0.24378279  0.37025513  0.97687537    -0.02430
H246        H  0.30443601  0.39851651  0.39382797     0.09730
H247        H  0.28224358  0.52550478  0.42579702     0.07750
Br248      Br  0.33595151  0.55054678  0.33486838    -0.02860
C249        C  0.32091882  0.49864968  0.04387978    -0.09490
C250        C  0.27567695  0.46568029  0.04518736     0.06710
C251        C  0.26029282  0.43534701  0.08587237    -0.03260
C252        C  0.28997230  0.43945269  0.12399699    -0.07710
C253        C  0.33494593  0.47244833  0.12189376     0.05820
C254        C  0.35043239  0.50161363  0.08095202    -0.02730
Br255      Br  0.41248395  0.54257390  0.07054882    -0.02430
H256        H  0.33383092  0.52165892  0.01275582     0.09730
H257        H  0.27835487  0.41556866  0.15430695     0.07750
Br258      Br  0.20152692  0.38466263  0.08981378    -0.02860
C259        C  0.17547487  0.44184343  0.41941811    -0.09490
C260        C  0.18994972  0.47404221  0.45785694     0.06710
C261        C  0.17744996  0.50679550  0.45482087    -0.03260
C262        C  0.15281787  0.50763356  0.41416093    -0.07710
C263        C  0.13809441  0.47534367  0.37679634     0.05820
C264        C  0.14968483  0.44231483  0.37920325    -0.02730
Br265      Br  0.12982454  0.39682476  0.32913625    -0.02430
H266        H  0.18234931  0.41498581  0.42177896     0.09730
H267        H  0.14223082  0.53194044  0.41359965     0.07750
Br268      Br  0.18800866  0.54910107  0.00644689    -0.02860
C269        C  0.14512561  0.43089232  0.05411452    -0.09490
C270        C  0.18927855  0.46552437  0.05209301     0.06710
C271        C  0.20587531  0.49662170  0.09188076    -0.03260
C272        C  0.17666024  0.49489812  0.12946602    -0.07710
C273        C  0.13118461  0.46216744  0.12887232     0.05820
C274        C  0.11644917  0.42812157  0.09204501    -0.02730
Br275      Br  0.05771407  0.37672718  0.08806912    -0.02430
H276        H  0.13240913  0.40606339  0.02465315     0.09730
H277        H  0.18913178  0.52097086  0.15740925     0.07750
Br278      Br  0.26540740  0.54635184  0.09280526    -0.02860
C279        C  0.46667515  0.65260319  0.45495391    -0.09490
C280        C  0.50270181  0.69638116  0.45551174     0.06710
C281        C  0.53364166  0.71054942  0.41530210    -0.03260
C282        C  0.52799095  0.68080323  0.37669207    -0.07710
C283        C  0.49272486  0.63687394  0.37767846     0.05820
C284        C  0.46216294  0.62285462  0.41743635    -0.02730
Br285      Br  0.41822976  0.56181180  0.42702922    -0.02430
H286        H  0.44300325  0.64062243  0.48561426     0.09730
H287        H  0.55284376  0.69118866  0.34735562     0.07750
Br288      Br  0.58755958  0.76697231  0.41330025    -0.02860
C289        C  0.53838300  0.66268299  0.09847710    -0.09490
C290        C  0.50011556  0.64149962  0.12879492     0.06710
C291        C  0.46656417  0.65263043  0.12131952    -0.03260
C292        C  0.47101240  0.68190819  0.08232228    -0.07710
C293        C  0.50805206  0.69999406  0.04993935     0.05820
C294        C  0.54196296  0.69012565  0.05898846    -0.02730
Br295      Br  0.59453771  0.71229084  0.01855016    -0.02430
H296        H  0.56548254  0.65628718  0.10361241     0.09730
H297        H  0.44422126  0.68844353  0.07533287     0.07750
Br298      Br  0.41251653  0.62689534  0.15965377    -0.02860
C299        C  0.54682378  0.82783253  0.44794990    -0.09490
C300        C  0.51014062  0.78511841  0.45346185     0.06710
C301        C  0.47430347  0.77063695  0.41955859    -0.03260
C302        C  0.47581026  0.79918987  0.38161122    -0.07710
C303        C  0.51165686  0.84298094  0.37770160     0.05820
C304        C  0.54836030  0.85646522  0.41066888    -0.02730
Br305      Br  0.60197428  0.91348244  0.40938300    -0.02430
H306        H  0.57420759  0.83954559  0.47430063     0.09730
H307        H  0.44740009  0.78792301  0.35714486     0.07750
Br308      Br  0.41980425  0.71545554  0.42786746    -0.02860
C309        C  0.47360851  0.80024583  0.04387224    -0.09490
C310        C  0.50359427  0.78449238  0.04732415     0.06710
C311        C  0.53350174  0.79905435  0.08857012    -0.03260
C312        C  0.52962479  0.82464960  0.12680457    -0.07710
C313        C  0.50037154  0.84082873  0.12162329     0.05820
C314        C  0.47464616  0.83087376  0.07796170    -0.02730
Br315      Br  0.44856713  0.86541368  0.05742987    -0.02430
H316        H  0.45251661  0.79261609  0.01123856     0.09730
H317        H  0.55248355  0.83555427  0.15823863     0.07750
Br318      Br  0.58619101  0.79494752  0.09031885    -0.02860
C319        C  0.80432981  0.25737761  0.08648497    -0.09490
C320        C  0.78276643  0.27190631  0.05354251     0.06710
C321        C  0.78468379  0.31238143  0.06440059    -0.03260
C322        C  0.81006934  0.33865000  0.10455117    -0.07710
C323        C  0.83443201  0.32567502  0.13438388     0.05820
C324        C  0.83024054  0.28399835  0.12636573    -0.02730
Br325      Br  0.86010574  0.26273437  0.16841150    -0.02430
H326        H  0.80304373  0.22628372  0.07981053     0.09730
H327        H  0.81305368  0.37072830  0.11048784     0.07750
Br328      Br  0.75460518  0.33474002  0.02569024    -0.02860
C329        C  0.85513684  0.30290036  0.41230565    -0.09490
C330        C  0.84011254  0.32510647  0.38109247     0.06710
C331        C  0.79514706  0.31426815  0.38571675    -0.03260
C332        C  0.76917167  0.28742756  0.42562448    -0.07710
C333        C  0.78623725  0.26891024  0.45945394     0.05820
C334        C  0.82865551  0.27474185  0.45036634    -0.02730
Br335      Br  0.85212850  0.24408713  0.98731928    -0.02430
H336        H  0.88828076  0.30788667  0.40787657     0.09730
H337        H  0.73556229  0.28108224  0.43047926     0.07750
Br338      Br  0.76624012  0.33313567  0.33891454    -0.02860
C339        C  0.71327270  0.18503523  0.41216099    -0.09490
C340        C  0.69599560  0.17801063  0.46181471     0.06710
C341        C  0.65068283  0.14358105  0.46697636    -0.03260
C342        C  0.62280007  0.12773945  0.42563131    -0.07710
C343        C  0.63982408  0.13589065  0.37719360     0.05820
C344        C  0.68575972  0.16379843  0.37034910    -0.02730
Br345      Br  0.71227275  0.17128162  0.30535419    -0.02430
H346        H  0.74840574  0.20416548  0.40504340     0.09730
H347        H  0.58822368  0.10244901  0.43138366     0.07750
Br348      Br  0.62737836  0.10079514  0.02012195    -0.02860
C349        C  0.64634840  0.17333001  0.11981247    -0.09490
C350        C  0.65232193  0.13962857  0.14000058     0.06710
C351        C  0.68926856  0.13628177  0.12448131    -0.03260
C352        C  0.71460105  0.16106345  0.08348973    -0.07710
C353        C  0.70355051  0.18923378  0.05788571     0.05820
C354        C  0.67094680  0.19739085  0.07808487    -0.02730
Br355      Br  0.65307349  0.23446615  0.04485128    -0.02430
H356        H  0.61890101  0.17721150  0.13230849     0.09730
H357        H  0.74020246  0.15524014  0.06875890     0.07750
Br358      Br  0.70440357  0.09606179  0.15511019    -0.02860
C359        C  0.44667480  0.26056637  0.42930753    -0.09490
C360        C  0.48855231  0.26938542  0.44647347     0.06710
C361        C  0.52693795  0.30170705  0.42162341    -0.03260
C362        C  0.52343452  0.32848136  0.38518068    -0.07710
C363        C  0.48212906  0.32412699  0.37314724     0.05820
C364        C  0.44318598  0.28818058  0.39376857    -0.02550
Br365      Br  0.38453621  0.27633491  0.37731975    -0.02430
H366        H  0.41684850  0.23541314  0.44780197     0.09730
H367        H  0.55357874  0.35492032  0.36887237     0.07750
Br368      Br  0.58505218  0.31223541  0.43779395    -0.02860
C369        C  0.48635568  0.31736338  0.03087928    -0.09490
C370        C  0.49749627  0.28438370  0.04089311     0.06710
C371        C  0.51651792  0.28673756  0.08907653    -0.03260
C372        C  0.51431754  0.31391657  0.12710365    -0.07710
C373        C  0.49930805  0.34355805  0.11634292     0.05820
C374        C  0.49012151  0.34797231  0.06622869    -0.02730
Br375      Br  0.48871034  0.39878849  0.04100778    -0.02430
H376        H  0.47606940  0.32182489  0.99440078     0.09730
H377        H  0.52641015  0.31346992  0.16440973     0.07750
Br378      Br  0.55569292  0.26459527  0.10307806    -0.02860
C379        C  0.51680481  0.19565680  0.42742896    -0.09490
C380        C  0.47763720  0.18476610  0.45338685     0.06710
C381        C  0.43755563  0.14740869  0.43822181    -0.03260
C382        C  0.43790361  0.12012380  0.39998323    -0.07710
C383        C  0.47778094  0.12979763  0.37585049     0.05820
C384        C  0.51727253  0.16931453  0.38853330    -0.02730
Br385      Br  0.57431529  0.18769088  0.35916252    -0.02430
H386        H  0.54805863  0.22282892  0.44032409     0.09730
H387        H  0.40707368  0.09037670  0.39024428     0.07750
Br388      Br  0.38197838  0.13137887  0.46963411    -0.02860
C389        C  0.44724026  0.14247883  0.12361669    -0.09490
C390        C  0.47562184  0.12478239  0.12158338     0.06710
C391        C  0.50620688  0.13712642  0.08225630    -0.03260
C392        C  0.50958868  0.16754715  0.04667852    -0.07710
C393        C  0.48089978  0.18493613  0.04695373     0.05820
C394        C  0.44926390  0.17205238  0.08616378    -0.02730
Br395      Br  0.40675126  0.19146912  0.08871218    -0.02430
H396        H  0.42281950  0.13240258  0.15335748     0.09730
H397        H  0.53404282  0.17632475  0.01728337     0.07750
Br398      Br  0.54059956  0.10908260  0.07214488    -0.02860
C399        C  0.66998010  0.53328442  0.41288612    -0.09490
C400        C  0.64871711  0.49836857  0.37796146     0.06710
C401        C  0.65878476  0.46399293  0.37918801    -0.03260
C402        C  0.68320866  0.46166732  0.41914398    -0.07710
C403        C  0.70097887  0.49424994  0.45668865     0.05820
C404        C  0.69650581  0.53185700  0.45131590    -0.02730
Br405      Br  0.72607251  0.58248328  0.99454449    -0.02430
H406        H  0.66507209  0.56147291  0.41135844     0.09730
H407        H  0.68585589  0.43255662  0.42224999     0.07750
Br408      Br  0.64026579  0.41814283  0.32936105    -0.02860
C409        C  0.62518431  0.45449791  0.09384677    -0.09490
C410        C  0.64394885  0.48880505  0.12872412     0.06710
C411        C  0.68979230  0.51998395  0.12628059    -0.03260
C412        C  0.71591670  0.51688916  0.08778053    -0.07710
C413        C  0.69619670  0.48397941  0.05043231     0.05820
C414        C  0.65034452  0.45226109  0.05474681    -0.02730
Br415      Br  0.61961800  0.40324344  0.51026087    -0.02430
H416        H  0.58999174  0.43013226  0.09580642     0.09730
H417        H  0.75087184  0.54168826  0.08519219     0.07750
Br418      Br  0.71710045  0.56764401  0.17359264    -0.02860
C419        C  0.82732550  0.48817871  0.03280715    -0.09490
C420        C  0.78219966  0.47449413  0.04251954     0.06710
C421        C  0.76548472  0.45382877  0.09000020    -0.03260
C422        C  0.79528723  0.45716540  0.12805935    -0.07710
C423        C  0.84061820  0.47420912  0.11757702     0.05820
C424        C  0.85462736  0.48470263  0.06768261    -0.02730
Br425      Br  0.90748707  0.48741909  0.04152219    -0.02430
H426        H  0.84252414  0.49988319  0.99673706     0.09730
H427        H  0.78250121  0.44367443  0.16490348     0.07750
Br428      Br  0.70479376  0.40961262  0.10204475    -0.02860
C429        C  0.80907394  0.52643191  0.43177948    -0.09490
C430        C  0.77645722  0.48405896  0.44848495     0.06710
C431        C  0.77250340  0.44656478  0.42411682    -0.03260
C432        C  0.80359842  0.45147265  0.38803323    -0.07710
C433        C  0.83990712  0.49324907  0.37620459     0.05820
C434        C  0.84161203  0.53127285  0.39699762    -0.02730
Br435      Br  0.88866789  0.59011247  0.38191889    -0.02430
H436        H  0.81244636  0.55557260  0.45030738     0.09730
H437        H  0.80126394  0.42200755  0.37200858     0.07750
Br438      Br  0.72721321  0.38761582  0.44114837    -0.02860
C439        C  0.75605835  0.47961888  0.99939194     0.00230
C440        C  0.72047054  0.48638581  0.50311855     0.00230
C441        C  0.49131554  0.25282986  0.49762394     0.00230
C442        C  0.48121386  0.20942002  0.50074068     0.00230
C443        C  0.72295862  0.20576750  0.50735141     0.00230
C444        C  0.76159325  0.24644355  0.00601950     0.00230
C445        C  0.50760457  0.76164307  0.50136176     0.00230
C446        C  0.50833011  0.72281590  0.50219811     0.00230
C447        C  0.21303798  0.47013244  0.00374479     0.00230
C448        C  0.24836755  0.46319882  0.50046911     0.00230
C449        C  0.26272671  0.74970238  0.50385045     0.00230
C450        C  0.22522775  0.70897620  0.00141178     0.00230
O451        O  0.91457034  0.37289723  0.85665483    -0.75630
O452        O  0.86109634  0.37882784  0.81462766    -0.54540
C453        C  0.87364213  0.36094644  0.84808581     0.78100
O454        O  0.06790358  0.59431293  0.85337942    -0.60230
O455        O  0.11853906  0.58567551  0.80758989    -0.53260
C456        C  0.10806360  0.60474900  0.84201730     0.70120
O457        O  0.91687066  0.52245381  0.85707895    -0.74790
O458        O  0.86394904  0.46460410  0.81121955    -0.55350
C459        C  0.87606639  0.49437389  0.84557066     0.76120
O460        O  0.06361388  0.44342238  0.85268170    -0.59930
O461        O  0.11620246  0.50317651  0.80873736    -0.53050
C462        C  0.10404025  0.47295876  0.84250223     0.72710
Zr463      Zr  0.98907245  0.42529006  0.82751964     2.54710
O464        O  0.99154658  0.42571116  0.91883865    -0.80500
O465        O  0.98737686  0.35493749  0.82220258    -0.93910
Zr466      Zr  0.99139520  0.54027106  0.82882566     2.64680
O467        O  0.99207089  0.53953297  0.92024861    -0.98870
O468        O  0.99472463  0.61143553  0.82520259    -0.80930
O469        O  0.94721831  0.46174023  0.83049220    -0.84290
O470        O  0.03307557  0.50350392  0.82750310    -2.19000
O471        O  0.05782439  0.43990038  0.65367388    -0.67680
O472        O  0.11369192  0.49838812  0.69478314    -0.52240
C473        C  0.09913838  0.46685993  0.66198853     0.71090
O474        O  0.91409754  0.50845271  0.64787526    -0.60580
O475        O  0.85967241  0.45400373  0.69536926    -0.52560
C476        C  0.87315955  0.47922474  0.65657682     0.72900
O477        O  0.06313852  0.59037784  0.65041924    -0.71980
O478        O  0.11632366  0.58415764  0.69283221    -0.50660
C479        C  0.10385613  0.60168550  0.65871708     0.74280
O480        O  0.90965032  0.36955619  0.65518870    -0.67310
O481        O  0.85881781  0.37816184  0.70049905    -0.54510
C482        C  0.86966877  0.35931711  0.66633126     0.72660
Zr483      Zr  0.98492390  0.42373336  0.68037972     2.77540
O484        O  0.98198837  0.42600177  0.58909286    -0.98060
O485        O  0.98117291  0.35234916  0.68166580    -0.78880
Zr486      Zr  0.98885634  0.53931326  0.68208584     2.70070
O487        O  0.99500498  0.55801494  0.59344202    -0.80130
O488        O  0.98395056  0.60525173  0.69806695    -0.99210
Zr489      Zr  0.90250204  0.43997552  0.75662048     2.21500
Zr490      Zr  0.07523056  0.52345737  0.75143252     2.11130
O491        O  0.02972172  0.50194266  0.67817908    -2.47900
O492        O  0.94443008  0.46108465  0.68099527    -0.79920
O493        O  0.03108845  0.44454933  0.75242097    -0.72120
O494        O  0.94569699  0.51927120  0.75618537    -2.33070
O495        O  0.94311163  0.40189678  0.75541243    -2.29280
O496        O  0.03471333  0.56197808  0.75414070    -0.73870
H497        H  0.05241151  0.51273217  0.85643443     0.78120
H498        H  0.92682242  0.53213341  0.75612223     0.79210
H499        H  0.04759307  0.51036035  0.64806980     0.81440
H500        H  0.92339106  0.37017676  0.75579214     0.79040
H501        H  0.96912893  0.60606946  0.80403002     0.42080
H502        H  0.01467726  0.62835157  0.70693739     0.41050
H503        H  0.00585448  0.53963020  0.57746724     0.40730
H504        H  0.01197917  0.44962540  0.57862042     0.38660
H505        H  0.00115133  0.35482017  0.70946435     0.41790
H506        H  0.95895553  0.33456132  0.80520331     0.36580
H507        H  0.97854285  0.44400533  0.92905759     0.42690
H508        H  0.01690788  0.53474052  0.92922584     0.39110
H509        H  0.98006805  0.39812964  0.57771053     0.44030
H510        H  0.98293156  0.34419122  0.85727161     0.42750
H511        H  0.00252166  0.57056774  0.93015899     0.42890
H512        H  0.97882225  0.61409814  0.66458672     0.43240
O513        O  0.46389513  0.38110982  0.64690672    -0.75630
O514        O  0.52033971  0.38455230  0.69349759    -0.54540
C515        C  0.49418346  0.37105673  0.65530655     0.78100
O516        O  0.52419778  0.59242615  0.65349593    -0.60230
O517        O  0.46514208  0.58736690  0.69573699    -0.53260
C518        C  0.49595390  0.60507278  0.66218709     0.70120
O519        O  0.60109385  0.52070111  0.65177542    -0.74790
O520        O  0.59565637  0.46326019  0.69821033    -0.55350
C521        C  0.61282809  0.49226664  0.66306546     0.76120
O522        O  0.37739639  0.44217125  0.65026372    -0.59930
O523        O  0.38436629  0.50305430  0.69074867    -0.53050
C524        C  0.36689520  0.47208329  0.65752469     0.72710
Zr525      Zr  0.43189642  0.42372973  0.68086376     2.54710
O526        O  0.41551685  0.41326636  0.59150923    -0.80500
O527        O  0.36689287  0.35108376  0.69566554    -0.93910
Zr528      Zr  0.54568285  0.53947943  0.67947880     2.64680
O529        O  0.54588286  0.53868421  0.58802609    -0.98870
O530        O  0.61501838  0.61022575  0.68347693    -0.80930
O531        O  0.51063422  0.46136264  0.67924552    -0.84290
O532        O  0.46689854  0.50209329  0.67825873    -2.19000
O533        O  0.37456612  0.44235397  0.84990569    -0.67680
O534        O  0.37865510  0.49983506  0.80550957    -0.52240
C535        C  0.36071420  0.46928451  0.83907766     0.71090
O536        O  0.60044289  0.52449466  0.85558100    -0.60580
O537        O  0.59530570  0.46624773  0.81187482    -0.52560
C538        C  0.61303052  0.49650788  0.84570753     0.72900
O539        O  0.52451854  0.59504352  0.85303866    -0.71980
O540        O  0.46258414  0.58446700  0.81116397    -0.50660
C541        C  0.49361495  0.60393234  0.84420123     0.74280
O542        O  0.45265101  0.37090208  0.85448403    -0.67310
O543        O  0.51195548  0.37886323  0.80935631    -0.54510
C544        C  0.48169048  0.35972574  0.84316607     0.72660
Zr545      Zr  0.43211533  0.42522563  0.82747447     2.77540
O546        O  0.43345396  0.42777346  0.91888528    -0.98060
O547        O  0.36271613  0.35452373  0.82555312    -0.78880
Zr548      Zr  0.54469285  0.54116103  0.82644356     2.70070
O549        O  0.54427202  0.54265809  0.91779387    -0.80130
O550        O  0.61430212  0.61133136  0.81956297    -0.99210
Zr551      Zr  0.53328257  0.44170167  0.75438310     2.21500
Zr552      Zr  0.44379111  0.52421967  0.75182159     2.11130
O553        O  0.46594579  0.50355046  0.82715375    -2.47900
O554        O  0.51093026  0.46287181  0.82886969    -0.79920
O555        O  0.40828185  0.44507603  0.75350881    -0.72120
O556        O  0.56906695  0.52052591  0.75378312    -2.33070
O557        O  0.45373852  0.40216088  0.75440991    -2.29280
O558        O  0.52330165  0.56255408  0.75210365    -0.73870
H559        H  0.45771006  0.51073769  0.64827245     0.78120
H560        H  0.60105101  0.53396336  0.75402591     0.79210
H561        H  0.45602619  0.51252194  0.85637382     0.81440
H562        H  0.44183100  0.37051893  0.75433012     0.79040
H563        H  0.63595673  0.60388704  0.70167045     0.42080
H564        H  0.60704679  0.63005114  0.79835415     0.41050
H565        H  0.52667934  0.51111057  0.92770229     0.40730
H566        H  0.43484258  0.45598191  0.92758679     0.38660
H567        H  0.34460237  0.35824186  0.79951282     0.41790
H568        H  0.37728425  0.32989232  0.68919923     0.36580
H569        H  0.43369337  0.44321814  0.57687173     0.42690
H570        H  0.51543846  0.53116426  0.57820548     0.39110
H571        H  0.40320973  0.40450198  0.92909884     0.44030
H572        H  0.34676109  0.34669186  0.66724131     0.42750
H573        H  0.56494659  0.57011450  0.57825947     0.42890
H574        H  0.61917227  0.62461931  0.85347909     0.43240
O575        O  0.60447579  0.06339535  0.65603147    -0.75630
O576        O  0.59306620  0.11364202  0.69824282    -0.54540
C577        C  0.61481167  0.10334663  0.66742816     0.78100
O578        O  0.37514879  0.90096513  0.65579314    -0.60230
O579        O  0.38890267  0.85243932  0.69845273    -0.53260
C580        C  0.36744698  0.86157392  0.66588884     0.70120
O581        O  0.44415253  0.05089414  0.64922006    -0.74790
O582        O  0.50423543  0.10562805  0.69112060    -0.55350
C583        C  0.47326003  0.09180849  0.65776524     0.76120
O584        O  0.52932697  0.91457064  0.64591013    -0.59930
O585        O  0.47366053  0.86023042  0.69321033    -0.53050
C586        C  0.50189623  0.87384799  0.65679495     0.72710
Zr587      Zr  0.54741947  0.98724158  0.67657406     2.54710
O588        O  0.54769210  0.99230253  0.58542938    -0.80500
O589        O  0.61551781  0.98392273  0.67863247    -0.93910
Zr590      Zr  0.42854166  0.97824394  0.67916367     2.64680
O591        O  0.42710233  0.97610441  0.58774137    -0.98870
O592        O  0.35641511  0.97330839  0.68539763    -0.80930
O593        O  0.50730990  0.02549128  0.67583690    -0.84290
O594        O  0.46892277  0.94046799  0.67815151    -2.19000
O595        O  0.53400269  0.91630830  0.85322649    -0.67680
O596        O  0.47685741  0.86040387  0.81035522    -0.52240
C597        C  0.50757929  0.87505952  0.84425109     0.71090
O598        O  0.45144164  0.05499557  0.85532358    -0.60580
O599        O  0.50592491  0.10839147  0.80670055    -0.52560
C600        C  0.47821849  0.09570305  0.84336406     0.72900
O601        O  0.38004513  0.90661913  0.85383844    -0.71980
O602        O  0.38949354  0.85569168  0.81090153    -0.50660
C603        C  0.37016208  0.86655058  0.84455753     0.74280
O604        O  0.60172049  0.06350388  0.84898599    -0.67310
O605        O  0.59084800  0.11406310  0.80675151    -0.54510
C606        C  0.61032398  0.10312724  0.84006930     0.72660
Zr607      Zr  0.54959871  0.98830097  0.82397860     2.77540
O608        O  0.55207086  0.99282816  0.91532154    -0.98060
O609        O  0.62149558  0.99274579  0.81812124    -0.78880
Zr610      Zr  0.43242718  0.98136603  0.82646471     2.70070
O611        O  0.43232325  0.98065173  0.91782904    -0.80130
O612        O  0.36166561  0.97943659  0.82221715    -0.99210
Zr613      Zr  0.52876217  0.06934962  0.75029175     2.21500
Zr614      Zr  0.45110323  0.89784231  0.75341326     2.11130
O615        O  0.47148974  0.94210445  0.82748460    -2.47900
O616        O  0.51069655  0.02762674  0.82574645    -0.79920
O617        O  0.53006625  0.94394236  0.75074410    -0.72120
O618        O  0.44956433  0.02359591  0.75198167    -2.33070
O619        O  0.56922646  0.03104802  0.75003835    -2.29280
O620        O  0.41010332  0.93585872  0.75387273    -0.73870
H621        H  0.45960275  0.92150582  0.64899724     0.78120
H622        H  0.43549372  0.04135124  0.75229480     0.79210
H623        H  0.46340819  0.92397164  0.85727957     0.81440
H624        H  0.60096536  0.05125912  0.75022718     0.79040
H625        H  0.36103813  0.99693957  0.70933661     0.42080
H626        H  0.34207241  0.95244446  0.80252753     0.41050
H627        H  0.46410820  0.99441542  0.92714519     0.40730
H628        H  0.52602150  0.96483784  0.92690706     0.38660
H629        H  0.61622551  0.96797356  0.79565913     0.41790
H630        H  0.63475318  0.00686546  0.70326971     0.36580
H631        H  0.52959022  0.00617996  0.57813494     0.42690
H632        H  0.43499470  0.95347554  0.57859604     0.39110
H633        H  0.57814675  0.99028042  0.92489285     0.44030
H634        H  0.62974083  0.99581903  0.64571381     0.42750
H635        H  0.39524700  0.96247842  0.57883487     0.42890
H636        H  0.34978079  0.97220916  0.85683776     0.43240
C637        C  0.30579478  0.76270843  0.92395249    -0.09490
C638        C  0.28382205  0.77614143  0.95748216     0.06710
C639        C  0.28435354  0.81595528  0.94765836    -0.03260
C640        C  0.31047309  0.84343328  0.90867151    -0.07710
C641        C  0.33571490  0.83176147  0.87758021     0.05820
C642        C  0.33053503  0.78923322  0.88358900    -0.02730
Br643      Br  0.35632566  0.76470087  0.83970747    -0.02430
H644        H  0.30551110  0.73225099  0.93022477     0.09730
H645        H  0.31174422  0.87477523  0.90355497     0.07750
Br646      Br  0.24962865  0.83461328  0.48500715    -0.02860
C647        C  0.26679469  0.78985513  0.58408176    -0.09490
C648        C  0.28463604  0.77024423  0.55275363     0.06710
C649        C  0.32578560  0.77441474  0.56598832    -0.03260
C650        C  0.34891694  0.79936802  0.60804113    -0.07710
C651        C  0.33461563  0.82477629  0.63402905     0.05820
C652        C  0.29221339  0.81844396  0.62321371    -0.02730
Br653      Br  0.26799383  0.84814372  0.66080253    -0.02430
H654        H  0.23429428  0.78533133  0.57609636     0.09730
H655        H  0.38027248  0.80193699  0.61783841     0.07750
Br656      Br  0.35372454  0.74938246  0.52642217    -0.02860
C657        C  0.17907435  0.63177168  0.88859378    -0.09490
C658        C  0.14437467  0.63870714  0.87379768     0.06710
C659        C  0.14261105  0.67497165  0.89452027    -0.03260
C660        C  0.17179670  0.69996176  0.93328288    -0.07710
C661        C  0.20287260  0.68936720  0.95234112     0.05820
C662        C  0.20819180  0.65670436  0.92736343    -0.02730
Br663      Br  0.25433363  0.64436072  0.94389494    -0.02430
H664        H  0.18221144  0.60525838  0.87178595     0.09730
H665        H  0.16907644  0.72678547  0.94982476     0.07750
Br666      Br  0.10148377  0.69219426  0.87099557    -0.02860
C667        C  0.17832753  0.63537041  0.61758087    -0.09490
C668        C  0.13812412  0.63506460  0.62431896     0.06710
C669        C  0.13024168  0.66388893  0.59440785    -0.03260
C670        C  0.16040230  0.68912084  0.55677568    -0.07710
C671        C  0.19874100  0.68667871  0.54746431     0.05820
C672        C  0.20847256  0.66079459  0.57984280    -0.02730
Br673      Br  0.26114276  0.65708514  0.57439550    -0.02430
H674        H  0.18563445  0.61417121  0.64031645     0.09730
H675        H  0.15331101  0.71038368  0.53400858     0.07750
Br676      Br  0.07946161  0.67129642  0.60209915    -0.02860
C677        C  0.29980012  0.42656862  0.89985136    -0.09490
C678        C  0.32295264  0.46493236  0.87032818     0.06710
C679        C  0.31303392  0.49927964  0.87731259    -0.03260
C680        C  0.28650101  0.49743233  0.91819087    -0.07710
C681        C  0.26773396  0.46092264  0.95096161     0.05820
C682        C  0.27255847  0.42429512  0.93938718    -0.02730
Br683      Br  0.24378286  0.37025523  0.47687554    -0.02430
H684        H  0.30443602  0.39851648  0.89382786     0.09730
H685        H  0.28224355  0.52550472  0.92579696     0.07750
Br686      Br  0.33595154  0.55054677  0.83486836    -0.02860
C687        C  0.32091886  0.49864977  0.54387986    -0.09490
C688        C  0.27567700  0.46568039  0.54518746     0.06710
C689        C  0.26029287  0.43534712  0.58587247    -0.03260
C690        C  0.28997235  0.43945279  0.62399707    -0.07710
C691        C  0.33494599  0.47244840  0.62189382     0.05820
C692        C  0.35043245  0.50161370  0.58095207    -0.02730
Br693      Br  0.41248401  0.54257394  0.57054884    -0.02430
H694        H  0.33383096  0.52165901  0.51275589     0.09730
H695        H  0.27835493  0.41556876  0.65430704     0.07750
Br696      Br  0.20152695  0.38466276  0.58981392    -0.02860
C697        C  0.17547485  0.44184344  0.91941801    -0.09490
C698        C  0.18994970  0.47404218  0.95785688     0.06710
C699        C  0.17744994  0.50679548  0.95482086    -0.03260
C700        C  0.15281786  0.50763357  0.91416094    -0.07710
C701        C  0.13809439  0.47534372  0.87679631     0.05820
C702        C  0.14968481  0.44231488  0.87920317    -0.02730
Br703      Br  0.12982453  0.39682485  0.82913610    -0.02430
H704        H  0.18234928  0.41498581  0.92177882     0.09730
H705        H  0.14223081  0.53194046  0.91359969     0.07750
Br706      Br  0.18800866  0.54910112  0.50644686    -0.02860
C707        C  0.14512562  0.43089243  0.55411456    -0.09490
C708        C  0.18927857  0.46552446  0.55209307     0.06710
C709        C  0.20587532  0.49662180  0.59188081    -0.03260
C710        C  0.17666024  0.49489825  0.62946604    -0.07710
C711        C  0.13118461  0.46216759  0.62887232     0.05820
C712        C  0.11644917  0.42812172  0.59204501    -0.02730
Br713      Br  0.05771403  0.37672738  0.58806903    -0.02430
H714        H  0.13240914  0.40606350  0.52465320     0.09730
H715        H  0.18913178  0.52097099  0.65740927     0.07750
Br716      Br  0.26540741  0.54635194  0.59280532    -0.02860
C717        C  0.46667516  0.65260321  0.95495391    -0.09490
C718        C  0.50270182  0.69638118  0.95551175     0.06710
C719        C  0.53364170  0.71054944  0.91530213    -0.03260
C720        C  0.52799101  0.68080325  0.87669211    -0.07710
C721        C  0.49272492  0.63687397  0.87767848     0.05820
C722        C  0.46216298  0.62285464  0.91743635    -0.02730
Br723      Br  0.41822979  0.56181182  0.92702919    -0.02430
H724        H  0.44300326  0.64062244  0.98561424     0.09730
H725        H  0.55284384  0.69118869  0.84735568     0.07750
Br726      Br  0.58755961  0.76697234  0.91330031    -0.02860
C727        C  0.53838305  0.66268302  0.59847709    -0.09490
C728        C  0.50011561  0.64149966  0.62879492     0.06710
C729        C  0.46656422  0.65263045  0.62131954    -0.03260
C730        C  0.47101243  0.68190820  0.58232228    -0.07710
C731        C  0.50805208  0.69999406  0.54993934     0.05820
C732        C  0.54196299  0.69012566  0.55898844    -0.02730
Br733      Br  0.59453773  0.71229085  0.51855012    -0.02430
H734        H  0.56548259  0.65628721  0.60361238     0.09730
H735        H  0.44422128  0.68844354  0.57533288     0.07750
Br736      Br  0.41251659  0.62689538  0.65965382    -0.02860
C737        C  0.54682376  0.82783253  0.94794989    -0.09490
C738        C  0.51014061  0.78511840  0.95346185     0.06710
C739        C  0.47430345  0.77063694  0.91955860    -0.03260
C740        C  0.47581024  0.79918985  0.88161121    -0.07710
C741        C  0.51165683  0.84298092  0.87770158     0.05820
C742        C  0.54836027  0.85646521  0.91066886    -0.02730
Br743      Br  0.60197425  0.91348243  0.90938296    -0.02430
H744        H  0.57420757  0.83954560  0.97430062     0.09730
H745        H  0.44740006  0.78792298  0.85714487     0.07750
Br746      Br  0.41980423  0.71545552  0.92786748    -0.02860
C747        C  0.47360849  0.80024580  0.54387224    -0.09490
C748        C  0.50359427  0.78449237  0.54732414     0.06710
C749        C  0.53350174  0.79905434  0.58857011    -0.03260
C750        C  0.52962479  0.82464960  0.62680457    -0.07710
C751        C  0.50037151  0.84082870  0.62162329     0.05820
C752        C  0.47464613  0.83087372  0.57796170    -0.02730
Br753      Br  0.44856709  0.86541363  0.55742987    -0.02430
H754        H  0.45251659  0.79261605  0.51123856     0.09730
H755        H  0.55248355  0.83555427  0.65823861     0.07750
Br756      Br  0.58619102  0.79494753  0.59031883    -0.02860
C757        C  0.80432980  0.25737766  0.58648506    -0.09490
C758        C  0.78276642  0.27190634  0.55354257     0.06710
C759        C  0.78468378  0.31238147  0.56440061    -0.03260
C760        C  0.81006933  0.33865006  0.60455118    -0.07710
C761        C  0.83443200  0.32567510  0.63438392     0.05820
C762        C  0.83024053  0.28399843  0.62636581    -0.02730
Br763      Br  0.86010573  0.26273447  0.66841160    -0.02430
H764        H  0.80304371  0.22628376  0.57981065     0.09730
H765        H  0.81305367  0.37072836  0.61048783     0.07750
Br766      Br  0.75460518  0.33474004  0.52569023    -0.02860
C767        C  0.85513683  0.30290039  0.91230558    -0.09490
C768        C  0.84011253  0.32510651  0.88109243     0.06710
C769        C  0.79514704  0.31426819  0.88571672    -0.03260
C770        C  0.76917166  0.28742758  0.92562444    -0.07710
C771        C  0.78623723  0.26891024  0.95945387     0.05820
C772        C  0.82865549  0.27474185  0.95036626    -0.02730
Br773      Br  0.85212851  0.24408714  0.48731941    -0.02430
H774        H  0.88828075  0.30788671  0.90787649     0.09730
H775        H  0.73556227  0.28108225  0.93047923     0.07750
Br776      Br  0.76624010  0.33313573  0.83891454    -0.02860
C777        C  0.71327266  0.18503523  0.91216093    -0.09490
C778        C  0.69599558  0.17801062  0.96181466     0.06710
C779        C  0.65068282  0.14358103  0.96697632    -0.03260
C780        C  0.62280004  0.12773942  0.92563129    -0.07710
C781        C  0.63982404  0.13589063  0.87719356     0.05820
C782        C  0.68575968  0.16379842  0.87034905    -0.02730
Br783      Br  0.71227268  0.17128162  0.80535412    -0.02430
H784        H  0.74840570  0.20416549  0.90504332     0.09730
H785        H  0.58822366  0.10244898  0.93138365     0.07750
Br786      Br  0.62737835  0.10079515  0.52012198    -0.02860
C787        C  0.64634839  0.17333000  0.61981251    -0.09490
C788        C  0.65232192  0.13962855  0.64000061     0.06710
C789        C  0.68926855  0.13628175  0.62448134    -0.03260
C790        C  0.71460105  0.16106345  0.58348978    -0.07710
C791        C  0.70355052  0.18923378  0.55788576     0.05820
C792        C  0.67094680  0.19739086  0.57808493    -0.02730
Br793      Br  0.65307351  0.23446617  0.54485135    -0.02430
H794        H  0.61890100  0.17721149  0.63230854     0.09730
H795        H  0.74020246  0.15524014  0.56875895     0.07750
Br796      Br  0.70440354  0.09606176  0.65511022    -0.02860
C797        C  0.44667485  0.26056638  0.92930750    -0.09490
C798        C  0.48855235  0.26938543  0.94647346     0.06710
C799        C  0.52693799  0.30170707  0.92162341    -0.03260
C800        C  0.52343457  0.32848138  0.88518068    -0.07710
C801        C  0.48212912  0.32412701  0.87314722     0.05820
C802        C  0.44318603  0.28818059  0.89376854    -0.02550
Br803      Br  0.38453626  0.27633492  0.87731969    -0.02430
H804        H  0.41684854  0.23541315  0.94780193     0.09730
H805        H  0.55357880  0.35492034  0.86887237     0.07750
Br806      Br  0.58505222  0.31223542  0.93779396    -0.02860
C807        C  0.48635568  0.31736338  0.53087929    -0.09490
C808        C  0.49749626  0.28438369  0.54089312     0.06710
C809        C  0.51651790  0.28673754  0.58907654    -0.03260
C810        C  0.51431753  0.31391657  0.62710366    -0.07710
C811        C  0.49930807  0.34355806  0.61634292     0.05820
C812        C  0.49012153  0.34797232  0.56622870    -0.02730
Br813      Br  0.48871038  0.39878852  0.54100778    -0.02430
H814        H  0.47606941  0.32182490  0.49440079     0.09730
H815        H  0.52641014  0.31346991  0.66440974     0.07750
Br816      Br  0.55569288  0.26459523  0.60307808    -0.02860
C817        C  0.51680480  0.19565679  0.92742894    -0.09490
C818        C  0.47763721  0.18476610  0.95338685     0.06710
C819        C  0.43755563  0.14740868  0.93822184    -0.03260
C820        C  0.43790360  0.12012378  0.89998325    -0.07710
C821        C  0.47778091  0.12979761  0.87585049     0.05820
C822        C  0.51727251  0.16931451  0.88853328    -0.02730
Br823      Br  0.57431526  0.18769087  0.85916247    -0.02430
H824        H  0.54805863  0.22282892  0.94032404     0.09730
H825        H  0.40707367  0.09037668  0.89024433     0.07750
Br826      Br  0.38197839  0.13137886  0.96963417    -0.02860
C827        C  0.44724020  0.14247880  0.62361667    -0.09490
C828        C  0.47562180  0.12478237  0.62158337     0.06710
C829        C  0.50620685  0.13712641  0.58225631    -0.03260
C830        C  0.50958866  0.16754715  0.54667853    -0.07710
C831        C  0.48089975  0.18493612  0.54695373     0.05820
C832        C  0.44926385  0.17205235  0.58616377    -0.02730
Br833      Br  0.40675121  0.19146908  0.58871215    -0.02430
H834        H  0.42281944  0.13240253  0.65335745     0.09730
H835        H  0.53404281  0.17632475  0.51728339     0.07750
Br836      Br  0.54059955  0.10908261  0.57214491    -0.02860
C837        C  0.66998013  0.53328441  0.91288616    -0.09490
C838        C  0.64871714  0.49836857  0.87796150     0.06710
C839        C  0.65878475  0.46399290  0.87918808    -0.03260
C840        C  0.68320862  0.46166727  0.91914408    -0.07710
C841        C  0.70097883  0.49424990  0.95668874     0.05820
C842        C  0.69650580  0.53185698  0.95131596    -0.02730
Br843      Br  0.72607250  0.58248329  0.49454444    -0.02430
H844        H  0.66507214  0.56147291  0.91135846     0.09730
H845        H  0.68585582  0.43255656  0.92225012     0.07750
Br846      Br  0.64026581  0.41814282  0.82936111    -0.02860
C847        C  0.62518434  0.45449795  0.59384668    -0.09490
C848        C  0.64394889  0.48880507  0.62872406     0.06710
C849        C  0.68979235  0.51998395  0.62628054    -0.03260
C850        C  0.71591674  0.51688917  0.58778046    -0.07710
C851        C  0.69619672  0.48397944  0.55043222     0.05820
C852        C  0.65034454  0.45226114  0.55474671    -0.02730
Br853      Br  0.61961801  0.40324336  0.01026101    -0.02430
H854        H  0.58999176  0.43013232  0.59580633     0.09730
H855        H  0.75087188  0.54168826  0.58519213     0.07750
Br856      Br  0.71710051  0.56764398  0.67359263    -0.02860
C857        C  0.82732553  0.48817878  0.53280711    -0.09490
C858        C  0.78219967  0.47449416  0.54251947     0.06710
C859        C  0.76548472  0.45382878  0.59000011    -0.03260
C860        C  0.79528721  0.45716543  0.62805929    -0.07710
C861        C  0.84061819  0.47420918  0.61757700     0.05820
C862        C  0.85462737  0.48470271  0.56768260    -0.02730
Br863      Br  0.90748711  0.48741919  0.54152221    -0.02430
H864        H  0.84252418  0.49988327  0.49673703     0.09730
H865        H  0.78250117  0.44367445  0.66490341     0.07750
Br866      Br  0.70479375  0.40961260  0.60204460    -0.02860
C867        C  0.80907391  0.52643192  0.93177958    -0.09490
C868        C  0.77645719  0.48405896  0.94848503     0.06710
C869        C  0.77250338  0.44656480  0.92411687    -0.03260
C870        C  0.80359839  0.45147269  0.88803327    -0.07710
C871        C  0.83990709  0.49324912  0.87620465     0.05820
C872        C  0.84161200  0.53127289  0.89699770    -0.02730
Br873      Br  0.88866785  0.59011252  0.88191900    -0.02430
H874        H  0.81244632  0.55557261  0.95030751     0.09730
H875        H  0.80126392  0.42200760  0.87200859     0.07750
Br876      Br  0.72721321  0.38761582  0.94114841    -0.02860
loop_ 
_geom_bond_atom_site_label_1 
_geom_bond_atom_site_label_2 
_geom_bond_distance 
_geom_bond_site_symmetry_2 
_ccdc_geom_bond_type 
C1          C430   1.502       .  S
C1          C858   1.533       .  S
C1          C440   1.378       .  D
C2          C413   1.496       .  S
C2          C841   1.503   1_554  S
C2          C439   1.378   1_554  D
C3          C370   1.533   1_556  S
C3          C798   1.504       .  S
C3            C4   1.377   1_556  D
C4          C393   1.498       .  S
C4          C818   1.496   1_554  S
C5          C353   1.487       .  S
C5          C778   1.541   1_554  S
C5          C444   1.379       .  D
C6          C333   1.488       .  S
C6          C758   1.508       .  S
C6          C443   1.379       .  D
C7          C310   1.506       .  S
C7          C738   1.497   1_554  S
C7            C8   1.371       .  D
C8          C293   1.500       .  S
C8          C718   1.501   1_554  S
C9          C260   1.508       .  S
C9          C708   1.495       .  S
C9          C448   1.372       .  D
C10         C250   1.500       .  S
C10         C681   1.501   1_554  S
C10         C447   1.372       .  D
C11         C210   1.497       .  S
C11         C638   1.496   1_554  S
C11         C450   1.364       .  D
C12         C223   1.498       .  S
C12         C671   1.497       .  S
C12         C449   1.364       .  D
O13         Zr25   2.427       .  S
O13          C15   1.287       .  A
O14         Zr51   2.436       .  S
O14          C15   1.287       .  A
C15         C330   1.494       .  S
O16         Zr28   2.452   1_455  S
O16          C18   1.290       .  A
O17         Zr52   2.435       .  S
O17          C18   1.289       .  A
C18         C220   1.486       .  S
O19         Zr28   2.461       .  S
O19          C21   1.292       .  A
O20         Zr51   2.413       .  S
O20          C21   1.286       .  A
C21         C433   1.484       .  S
O22         Zr25   2.435   1_455  S
O22          C24   1.286       .  A
O23         Zr52   2.429       .  S
O23          C24   1.287       .  A
C24         C263   1.466       .  S
Zr25         O26   2.435       .  S
Zr25         O27   2.435       .  S
Zr25         O31   2.373       .  S
Zr25         O32   2.366   1_655  S
Zr25         O55   2.367   1_655  S
Zr25         O57   2.366       .  S
O26          H69   0.990       .  S
O27          H68   0.990       .  S
O27          H72   0.990       .  S
Zr28         O29   2.436       .  S
Zr28         O30   2.434       .  S
Zr28         O32   2.376   1_655  S
Zr28         O31   2.376       .  S
Zr28         O56   2.375       .  S
Zr28         O58   2.378   1_655  S
O29          H70   0.990   1_655  S
O29          H73   0.990   1_655  S
O30          H63   0.990       .  S
O31         Zr51   2.384       .  S
O32         Zr52   2.391       .  S
O32          H59   0.966       .  S
O33         Zr45   2.413   1_455  S
O33          C35   1.280       .  A
O34         Zr52   2.453       .  S
O34          C35   1.292       .  A
C35         C273   1.495       .  S
O36         Zr48   2.437       .  S
O36          C38   1.288       .  A
O37         Zr51   2.424       .  S
O37          C38   1.285       .  A
C38         C423   1.482       .  S
O39         Zr48   2.435   1_455  S
O39          C41   1.285       .  A
O40         Zr52   2.436       .  S
O40          C41   1.289       .  A
C41         C230   1.491       .  S
O42         Zr45   2.428       .  S
O42          C44   1.285       .  A
O43         Zr51   2.428       .  S
O43          C44   1.286       .  A
C44         C323   1.468       .  S
Zr45         O46   2.438       .  S
Zr45         O47   2.433       .  S
Zr45         O53   2.369   1_655  S
Zr45         O54   2.357       .  S
Zr45         O57   2.362       .  S
Zr45         O55   2.370   1_655  S
O46          H66   0.990   1_655  S
O46          H71   0.990       .  S
O47          H67   0.990   1_655  S
Zr48         O49   2.432       .  S
Zr48         O50   2.434       .  S
Zr48         O54   2.367       .  S
Zr48         O53   2.371   1_655  S
Zr48         O58   2.364   1_655  S
Zr48         O56   2.363       .  S
O49          H65   0.991   1_655  S
O50          H64   0.990   1_655  S
O50          H74   0.990       .  S
Zr51         O54   2.377       .  S
Zr51         O56   2.396       .  S
Zr51         O57   2.383       .  S
Zr52         O53   2.384       .  S
Zr52         O55   2.387       .  S
Zr52         O58   2.394       .  S
O53          H61   0.966       .  S
O56          H60   0.966       .  S
O57          H62   0.966       .  S
O75         Zr87   2.440       .  S
O75          C77   1.289       .  A
O76        Zr113   2.431       .  S
O76          C77   1.286       .  A
C77         C373   1.485       .  S
O78         Zr90   2.423       .  S
O78          C80   1.287       .  A
O79        Zr114   2.452       .  S
O79          C80   1.290       .  A
C80         C290   1.501       .  S
O81         Zr90   2.445       .  S
O81          C83   1.288       .  A
O82        Zr113   2.423       .  S
O82          C83   1.286       .  A
C83         C410   1.469       .  S
O84         Zr87   2.434       .  S
O84          C86   1.285       .  A
O85        Zr114   2.436       .  S
O85          C86   1.288       .  A
C86         C253   1.468       .  S
Zr87         O88   2.432       .  S
Zr87         O89   2.435       .  S
Zr87         O93   2.368       .  S
Zr87         O94   2.372       .  S
Zr87        O117   2.365       .  S
Zr87        O119   2.361       .  S
O88         H131   0.991       .  S
O89         H130   0.990       .  S
O89         H134   0.990       .  S
Zr90         O91   2.437       .  S
Zr90         O92   2.435       .  S
Zr90         O94   2.370       .  S
Zr90         O93   2.363       .  S
Zr90        O118   2.361       .  S
Zr90        O120   2.373       .  S
O91         H132   0.990       .  S
O91         H135   0.990       .  S
O92         H125   0.990       .  S
O93        Zr113   2.379       .  S
O94        Zr114   2.389       .  S
O94         H121   0.965       .  S
O95        Zr107   2.438       .  S
O95          C97   1.290       .  A
O96        Zr114   2.442       .  S
O96          C97   1.288       .  A
C97         C240   1.497       .  S
O98        Zr110   2.421       .  S
O98         C100   1.285       .  A
O99        Zr113   2.424       .  S
O99         C100   1.285       .  A
C100        C400   1.486       .  S
O101       Zr110   2.425       .  S
O101        C103   1.284       .  A
O102       Zr114   2.442       .  S
O102        C103   1.289       .  A
C103        C283   1.468       .  S
O104       Zr107   2.453       .  S
O104        C106   1.290       .  A
O105       Zr113   2.426       .  S
O105        C106   1.288       .  A
C106        C363   1.487       .  S
Zr107       O108   2.437       .  S
Zr107       O109   2.434       .  S
Zr107       O115   2.373       .  S
Zr107       O116   2.371       .  S
Zr107       O119   2.369       .  S
Zr107       O117   2.376       .  S
O108        H128   0.990       .  S
O108        H133   0.990       .  S
O109        H129   0.990       .  S
Zr110       O111   2.435       .  S
Zr110       O112   2.434       .  S
Zr110       O116   2.373       .  S
Zr110       O115   2.368       .  S
Zr110       O120   2.368       .  S
Zr110       O118   2.367       .  S
O111        H127   0.990       .  S
O112        H126   0.990       .  S
O112        H136   0.990       .  S
Zr113       O116   2.381       .  S
Zr113       O118   2.384       .  S
Zr113       O119   2.391       .  S
Zr114       O115   2.391       .  S
Zr114       O117   2.395       .  S
Zr114       O120   2.391       .  S
O115        H123   0.965       .  S
O118        H122   0.966       .  S
O119        H124   0.966       .  S
O137       Zr149   2.449   1_545  S
O137        C139   1.290       .  A
O138       Zr175   2.416       .  S
O138        C139   1.285       .  A
C139        C350   1.476       .  S
O140       Zr152   2.464       .  S
O140        C142   1.292       .  A
O141       Zr176   2.425       .  S
O141        C142   1.287       .  A
C142        C213   1.482       .  S
O143       Zr152   2.449   1_545  S
O143        C145   1.289       .  A
O144       Zr175   2.435       .  S
O144        C145   1.289       .  A
C145        C390   1.474       .  S
O146       Zr149   2.429       .  S
O146        C148   1.285       .  A
O147       Zr176   2.440       .  S
O147        C148   1.289       .  A
C148        C313   1.466       .  S
Zr149       O150   2.435       .  S
Zr149       O151   2.433       .  S
Zr149       O155   2.372   1_565  S
Zr149       O156   2.374       .  S
Zr149       O179   2.377       .  S
Zr149       O181   2.361   1_565  S
O150        H193   0.990   1_565  S
O151        H192   0.990   1_565  S
O151        H196   0.990       .  S
Zr152       O153   2.437       .  S
Zr152       O154   2.435       .  S
Zr152       O156   2.366       .  S
Zr152       O155   2.385   1_565  S
Zr152       O180   2.374   1_565  S
Zr152       O182   2.370       .  S
O153        H194   0.990       .  S
O153        H197   0.990       .  S
O154        H187   0.990       .  S
O155       Zr175   2.384       .  S
O156       Zr176   2.388       .  S
O156        H183   0.964       .  S
O157       Zr169   2.422       .  S
O157        C159   1.282       .  A
O158       Zr176   2.453       .  S
O158        C159   1.292       .  A
C159        C303   1.496       .  S
O160       Zr172   2.436   1_545  S
O160        C162   1.288       .  A
O161       Zr175   2.417       .  S
O161        C162   1.284       .  A
C162        C383   1.479       .  S
O163       Zr172   2.425       .  S
O163        C165   1.287       .  A
O164       Zr176   2.435       .  S
O164        C165   1.287       .  A
C165        C203   1.490       .  S
O166       Zr169   2.415   1_545  S
O166        C168   1.284       .  A
O167       Zr175   2.443       .  S
O167        C168   1.288       .  A
C168        C343   1.468       .  S
Zr169       O170   2.437       .  S
Zr169       O171   2.434       .  S
Zr169       O177   2.362       .  S
Zr169       O178   2.369   1_565  S
Zr169       O181   2.358   1_565  S
Zr169       O179   2.367       .  S
O170        H190   0.990       .  S
O170        H195   0.990       .  S
O171        H191   0.990       .  S
Zr172       O173   2.435       .  S
Zr172       O174   2.434       .  S
Zr172       O178   2.365   1_565  S
Zr172       O177   2.371       .  S
Zr172       O182   2.371       .  S
Zr172       O180   2.365   1_565  S
O173        H189   0.990       .  S
O174        H188   0.990       .  S
O174        H198   0.990       .  S
Zr175       O178   2.376       .  S
Zr175       O180   2.390       .  S
Zr175       O181   2.385       .  S
Zr176       O177   2.383       .  S
Zr176       O179   2.385       .  S
Zr176       O182   2.392       .  S
O177        H185   0.966       .  S
O180        H184   0.966       .  S
O181        H186   0.966       .  S
C199        C200   1.402       .  A
C199        C204   1.398       .  A
C199        H206   1.074       .  S
C200        C449   1.496       .  S
C200        C201   1.408       .  A
C201        C202   1.396       .  A
C201       Br646   1.916       .  S
C202        C203   1.409       .  A
C202        H207   1.083       .  S
C203        C204   1.414       .  A
C204       Br205   1.919       .  S
Br208       C639   1.916       .  S
C209        C210   1.407       .  A
C209        C214   1.405       .  A
C209        H216   1.082       .  S
C210        C211   1.410       .  A
C211        C212   1.398       .  A
C211       Br218   1.918       .  S
C212        C213   1.401       .  A
C212        H217   1.082       .  S
C213        C214   1.408       .  A
C214       Br215   1.917       .  S
C219        C220   1.404       .  A
C219        C224   1.401       .  A
C219        H226   1.083       .  S
C220        C221   1.412       .  A
C221        C222   1.402       .  A
C221       Br228   1.919       .  S
C222        C223   1.405       .  A
C222        H227   1.082       .  S
C223        C224   1.412       .  A
C224       Br225   1.914       .  S
C229        C230   1.406       .  A
C229        C234   1.401       .  A
C229        H236   1.083       .  S
C230        C231   1.418       .  A
C231        C232   1.397       .  A
C231       Br238   1.923       .  S
C232        C233   1.402       .  A
C232        H237   1.081       .  S
C233        C450   1.497       .  S
C233        C234   1.411       .  A
C234       Br235   1.909       .  S
C239        C240   1.407       .  A
C239        C244   1.392       .  A
C239        H246   1.083       .  S
C240        C241   1.420       .  A
C241        C242   1.408       .  A
C241       Br248   1.921       .  S
C242        C243   1.407       .  A
C242        H247   1.083       .  S
C243        C448   1.501       .  S
C243        C244   1.407       .  A
C244       Br683   1.915       .  S
Br245       C682   1.915       .  S
C249        C250   1.407       .  A
C249        C254   1.392       .  A
C249        H256   1.083       .  S
C250        C251   1.420       .  A
C251        C252   1.404       .  A
C251       Br258   1.918       .  S
C252        C253   1.401       .  A
C252        H257   1.084       .  S
C253        C254   1.403       .  A
C254       Br255   1.917       .  S
C259        C260   1.412       .  A
C259        C264   1.404       .  A
C259        H266   1.082       .  S
C260        C261   1.418       .  A
C261        C262   1.392       .  A
C261       Br706   1.913       .  S
C262        C263   1.393       .  A
C262        H267   1.084       .  S
C263        C264   1.404       .  A
C264       Br265   1.916       .  S
Br268       C699   1.913   1_554  S
C269        C270   1.398       .  A
C269        C274   1.389       .  A
C269        H276   1.085       .  S
C270        C447   1.495       .  S
C270        C271   1.415       .  A
C271        C272   1.407       .  A
C271       Br278   1.919       .  S
C272        C273   1.410       .  A
C272        H277   1.083       .  S
C273        C274   1.423       .  A
C274       Br275   1.927       .  S
C279        C280   1.407       .  A
C279        C284   1.392       .  A
C279        H286   1.083       .  S
C280        C446   1.501       .  S
C280        C281   1.420       .  A
C281        C282   1.403       .  A
C281       Br288   1.919       .  S
C282        C283   1.401       .  A
C282        H287   1.084       .  S
C283        C284   1.403       .  A
C284       Br285   1.915       .  S
C289        C290   1.407       .  A
C289        C294   1.388       .  A
C289        H296   1.083       .  S
C290        C291   1.420       .  A
C291        C292   1.413       .  A
C291       Br298   1.920       .  S
C292        C293   1.409       .  A
C292        H297   1.083       .  S
C293        C294   1.409       .  A
C294       Br295   1.918       .  S
C299        C300   1.399       .  A
C299        C304   1.393       .  A
C299        H306   1.084       .  S
C300        C445   1.497       .  S
C300        C301   1.411       .  A
C301        C302   1.405       .  A
C301       Br308   1.918       .  S
C302        C303   1.409       .  A
C302        H307   1.080       .  S
C303        C304   1.421       .  A
C304       Br305   1.925       .  S
C309        C310   1.409       .  A
C309        C314   1.390       .  A
C309        H316   1.081       .  S
C310        C311   1.420       .  A
C311        C312   1.406       .  A
C311       Br318   1.912       .  S
C312        C313   1.400       .  A
C312        H317   1.084       .  S
C313        C314   1.401       .  A
C314       Br315   1.922       .  S
C319        C320   1.407       .  A
C319        C324   1.400       .  A
C319        H326   1.080       .  S
C320        C444   1.508       .  S
C320        C321   1.412       .  A
C321        C322   1.396       .  A
C321       Br328   1.899       .  S
C322        C323   1.396       .  A
C322        H327   1.084       .  S
C323        C324   1.406       .  A
C324       Br325   1.917       .  S
C329        C330   1.408       .  A
C329        C334   1.390       .  A
C329        H336   1.083       .  S
C330        C331   1.418       .  A
C331        C332   1.405       .  A
C331       Br338   1.918       .  S
C332        C333   1.406       .  A
C332        H337   1.083       .  S
C333        C334   1.406       .  A
C334       Br773   1.918       .  S
Br335       C772   1.918       .  S
C339        C340   1.422       .  A
C339        C344   1.411       .  A
C339        H346   1.074       .  S
C340        C443   1.541       .  S
C340        C341   1.428       .  A
C341        C342   1.386       .  A
C341       Br786   1.919       .  S
C342        C343   1.388       .  A
C342        H347   1.086       .  S
C343        C344   1.403       .  A
C344       Br345   1.917       .  S
Br348       C779   1.919   1_554  S
C349        C350   1.404       .  A
C349        C354   1.397       .  A
C349        H356   1.083       .  S
C350        C351   1.411       .  A
C351        C352   1.397       .  A
C351       Br358   1.917       .  S
C352        C353   1.403       .  A
C352        H357   1.083       .  S
C353        C354   1.409       .  A
C354       Br355   1.916       .  S
C359        C360   1.406       .  A
C359        C364   1.402       .  A
C359        H366   1.083       .  S
C360        C441   1.504       .  S
C360        C361   1.407       .  A
C361        C362   1.398       .  A
C361       Br368   1.915       .  S
C362        C363   1.405       .  A
C362        H367   1.080       .  S
C363        C364   1.415       .  A
C364       Br365   1.919       .  S
C369        C370   1.416       .  A
C369        C374   1.380       .  A
C369        H376   1.075   1_554  S
C370        C371   1.428       .  A
C371        C372   1.416       .  A
C371       Br378   1.915       .  S
C372        C373   1.407       .  A
C372        H377   1.083       .  S
C373        C374   1.400       .  A
C374       Br375   1.925       .  S
C379        C380   1.400       .  A
C379        C384   1.391       .  A
C379        H386   1.077       .  S
C380        C442   1.496       .  S
C380        C381   1.406       .  A
C381        C382   1.399       .  A
C381       Br388   1.914       .  S
C382        C383   1.408       .  A
C382        H387   1.084       .  S
C383        C384   1.413       .  A
C384       Br385   1.919       .  S
C389        C390   1.407       .  A
C389        C394   1.414       .  A
C389        H396   1.083       .  S
C390        C391   1.398       .  A
C391        C392   1.386       .  A
C391       Br398   1.912       .  S
C392        C393   1.408       .  A
C392        H397   1.081       .  S
C393        C394   1.417       .  A
C394       Br395   1.916       .  S
C399        C400   1.410       .  A
C399        C404   1.397       .  A
C399        H406   1.083       .  S
C400        C401   1.413       .  A
C401        C402   1.391       .  A
C401       Br408   1.923       .  S
C402        C403   1.403       .  A
C402        H407   1.071       .  S
C403        C440   1.503       .  S
C403        C404   1.408       .  A
C404       Br843   1.917       .  S
Br405       C842   1.917       .  S
C409        C410   1.391       .  A
C409        C414   1.388       .  A
C409        H416   1.085       .  S
C410        C411   1.409       .  A
C411        C412   1.410       .  A
C411       Br418   1.915       .  S
C412        C413   1.409       .  A
C412        H417   1.083       .  S
C413        C414   1.416       .  A
C414       Br853   1.906       .  S
Br415       C852   1.906       .  S
C419        C420   1.416       .  A
C419        C424   1.379       .  A
C419        H426   1.074   1_554  S
C420        C439   1.533   1_554  S
C420        C421   1.428       .  A
C421        C422   1.414       .  A
C421       Br428   1.914       .  S
C422        C423   1.405       .  A
C422        H427   1.083       .  S
C423        C424   1.400       .  A
C424       Br425   1.925       .  S
C429        C430   1.409       .  A
C429        C434   1.406       .  A
C429        H436   1.083       .  S
C430        C431   1.405       .  A
C431        C432   1.392       .  A
C431       Br438   1.914       .  S
C432        C433   1.403       .  A
C432        H437   1.079       .  S
C433        C434   1.413       .  A
C434       Br435   1.918       .  S
C439        C868   1.502       .  S
C440        C851   1.496       .  S
C441        C808   1.533       .  S
C441        C442   1.377       .  D
C442        C831   1.498       .  S
C443        C791   1.487       .  S
C444        C771   1.488   1_554  S
C445        C748   1.506       .  S
C445        C446   1.371       .  D
C446        C731   1.500       .  S
C447        C698   1.508   1_554  S
C448        C688   1.500       .  S
C449        C648   1.497       .  S
C450        C661   1.498   1_554  S
O451       Zr463   2.427       .  S
O451        C453   1.287       .  A
O452       Zr489   2.436       .  S
O452        C453   1.287       .  A
C453        C768   1.494       .  S
O454       Zr466   2.452   1_455  S
O454        C456   1.290       .  A
O455       Zr490   2.435       .  S
O455        C456   1.289       .  A
C456        C658   1.486       .  S
O457       Zr466   2.461       .  S
O457        C459   1.292       .  A
O458       Zr489   2.413       .  S
O458        C459   1.286       .  A
C459        C871   1.484       .  S
O460       Zr463   2.435   1_455  S
O460        C462   1.286       .  A
O461       Zr490   2.429       .  S
O461        C462   1.287       .  A
C462        C701   1.466       .  S
Zr463       O464   2.435       .  S
Zr463       O465   2.435       .  S
Zr463       O469   2.373       .  S
Zr463       O470   2.366   1_655  S
Zr463       O493   2.367   1_655  S
Zr463       O495   2.366       .  S
O464        H507   0.990       .  S
O465        H506   0.990       .  S
O465        H510   0.990       .  S
Zr466       O467   2.436       .  S
Zr466       O468   2.434       .  S
Zr466       O470   2.376   1_655  S
Zr466       O469   2.376       .  S
Zr466       O494   2.375       .  S
Zr466       O496   2.378   1_655  S
O467        H508   0.990   1_655  S
O467        H511   0.990   1_655  S
O468        H501   0.990       .  S
O469       Zr489   2.384       .  S
O470       Zr490   2.391       .  S
O470        H497   0.966       .  S
O471       Zr483   2.413   1_455  S
O471        C473   1.280       .  A
O472       Zr490   2.453       .  S
O472        C473   1.292       .  A
C473        C711   1.495       .  S
O474       Zr486   2.437       .  S
O474        C476   1.288       .  A
O475       Zr489   2.424       .  S
O475        C476   1.285       .  A
C476        C861   1.482       .  S
O477       Zr486   2.435   1_455  S
O477        C479   1.285       .  A
O478       Zr490   2.436       .  S
O478        C479   1.289       .  A
C479        C668   1.491       .  S
O480       Zr483   2.428       .  S
O480        C482   1.285       .  A
O481       Zr489   2.428       .  S
O481        C482   1.286       .  A
C482        C761   1.468       .  S
Zr483       O484   2.438       .  S
Zr483       O485   2.433       .  S
Zr483       O491   2.369   1_655  S
Zr483       O492   2.357       .  S
Zr483       O495   2.362       .  S
Zr483       O493   2.370   1_655  S
O484        H504   0.990   1_655  S
O484        H509   0.990       .  S
O485        H505   0.990   1_655  S
Zr486       O487   2.432       .  S
Zr486       O488   2.434       .  S
Zr486       O492   2.367       .  S
Zr486       O491   2.371   1_655  S
Zr486       O496   2.364   1_655  S
Zr486       O494   2.363       .  S
O487        H503   0.991   1_655  S
O488        H502   0.990   1_655  S
O488        H512   0.990       .  S
Zr489       O492   2.377       .  S
Zr489       O494   2.396       .  S
Zr489       O495   2.383       .  S
Zr490       O491   2.384       .  S
Zr490       O493   2.387       .  S
Zr490       O496   2.394       .  S
O491        H499   0.966       .  S
O494        H498   0.966       .  S
O495        H500   0.966       .  S
O513       Zr525   2.440       .  S
O513        C515   1.289       .  A
O514       Zr551   2.431       .  S
O514        C515   1.286       .  A
C515        C811   1.485       .  S
O516       Zr528   2.423       .  S
O516        C518   1.287       .  A
O517       Zr552   2.452       .  S
O517        C518   1.290       .  A
C518        C728   1.501       .  S
O519       Zr528   2.445       .  S
O519        C521   1.288       .  A
O520       Zr551   2.423       .  S
O520        C521   1.286       .  A
C521        C848   1.469       .  S
O522       Zr525   2.434       .  S
O522        C524   1.285       .  A
O523       Zr552   2.436       .  S
O523        C524   1.288       .  A
C524        C691   1.468       .  S
Zr525       O526   2.432       .  S
Zr525       O527   2.435       .  S
Zr525       O531   2.368       .  S
Zr525       O532   2.372       .  S
Zr525       O555   2.365       .  S
Zr525       O557   2.361       .  S
O526        H569   0.991       .  S
O527        H568   0.990       .  S
O527        H572   0.990       .  S
Zr528       O529   2.437       .  S
Zr528       O530   2.435       .  S
Zr528       O532   2.370       .  S
Zr528       O531   2.363       .  S
Zr528       O556   2.361       .  S
Zr528       O558   2.373       .  S
O529        H570   0.990       .  S
O529        H573   0.990       .  S
O530        H563   0.990       .  S
O531       Zr551   2.379       .  S
O532       Zr552   2.389       .  S
O532        H559   0.965       .  S
O533       Zr545   2.438       .  S
O533        C535   1.290       .  A
O534       Zr552   2.442       .  S
O534        C535   1.288       .  A
C535        C678   1.497       .  S
O536       Zr548   2.421       .  S
O536        C538   1.285       .  A
O537       Zr551   2.424       .  S
O537        C538   1.285       .  A
C538        C838   1.486       .  S
O539       Zr548   2.425       .  S
O539        C541   1.284       .  A
O540       Zr552   2.442       .  S
O540        C541   1.289       .  A
C541        C721   1.468       .  S
O542       Zr545   2.453       .  S
O542        C544   1.290       .  A
O543       Zr551   2.426       .  S
O543        C544   1.288       .  A
C544        C801   1.487       .  S
Zr545       O546   2.437       .  S
Zr545       O547   2.434       .  S
Zr545       O553   2.373       .  S
Zr545       O554   2.371       .  S
Zr545       O557   2.369       .  S
Zr545       O555   2.376       .  S
O546        H566   0.990       .  S
O546        H571   0.990       .  S
O547        H567   0.990       .  S
Zr548       O549   2.435       .  S
Zr548       O550   2.434       .  S
Zr548       O554   2.373       .  S
Zr548       O553   2.368       .  S
Zr548       O558   2.368       .  S
Zr548       O556   2.367       .  S
O549        H565   0.990       .  S
O550        H564   0.990       .  S
O550        H574   0.990       .  S
Zr551       O554   2.381       .  S
Zr551       O556   2.384       .  S
Zr551       O557   2.391       .  S
Zr552       O553   2.391       .  S
Zr552       O555   2.395       .  S
Zr552       O558   2.391       .  S
O553        H561   0.965       .  S
O556        H560   0.966       .  S
O557        H562   0.966       .  S
O575       Zr587   2.449   1_545  S
O575        C577   1.290       .  A
O576       Zr613   2.416       .  S
O576        C577   1.285       .  A
C577        C788   1.476       .  S
O578       Zr590   2.464       .  S
O578        C580   1.292       .  A
O579       Zr614   2.425       .  S
O579        C580   1.287       .  A
C580        C651   1.482       .  S
O581       Zr590   2.449   1_545  S
O581        C583   1.289       .  A
O582       Zr613   2.435       .  S
O582        C583   1.289       .  A
C583        C828   1.474       .  S
O584       Zr587   2.429       .  S
O584        C586   1.285       .  A
O585       Zr614   2.440       .  S
O585        C586   1.289       .  A
C586        C751   1.466       .  S
Zr587       O588   2.435       .  S
Zr587       O589   2.433       .  S
Zr587       O593   2.372   1_565  S
Zr587       O594   2.374       .  S
Zr587       O617   2.377       .  S
Zr587       O619   2.361   1_565  S
O588        H631   0.990   1_565  S
O589        H630   0.990   1_565  S
O589        H634   0.990       .  S
Zr590       O591   2.437       .  S
Zr590       O592   2.435       .  S
Zr590       O594   2.366       .  S
Zr590       O593   2.385   1_565  S
Zr590       O618   2.374   1_565  S
Zr590       O620   2.370       .  S
O591        H632   0.990       .  S
O591        H635   0.990       .  S
O592        H625   0.990       .  S
O593       Zr613   2.384       .  S
O594       Zr614   2.388       .  S
O594        H621   0.964       .  S
O595       Zr607   2.422       .  S
O595        C597   1.282       .  A
O596       Zr614   2.453       .  S
O596        C597   1.292       .  A
C597        C741   1.496       .  S
O598       Zr610   2.436   1_545  S
O598        C600   1.288       .  A
O599       Zr613   2.417       .  S
O599        C600   1.284       .  A
C600        C821   1.479       .  S
O601       Zr610   2.425       .  S
O601        C603   1.287       .  A
O602       Zr614   2.435       .  S
O602        C603   1.287       .  A
C603        C641   1.490       .  S
O604       Zr607   2.415   1_545  S
O604        C606   1.284       .  A
O605       Zr613   2.443       .  S
O605        C606   1.288       .  A
C606        C781   1.468       .  S
Zr607       O608   2.437       .  S
Zr607       O609   2.434       .  S
Zr607       O615   2.362       .  S
Zr607       O616   2.369   1_565  S
Zr607       O619   2.358   1_565  S
Zr607       O617   2.367       .  S
O608        H628   0.990       .  S
O608        H633   0.990       .  S
O609        H629   0.990       .  S
Zr610       O611   2.435       .  S
Zr610       O612   2.434       .  S
Zr610       O616   2.365   1_565  S
Zr610       O615   2.371       .  S
Zr610       O620   2.371       .  S
Zr610       O618   2.365   1_565  S
O611        H627   0.990       .  S
O612        H626   0.990       .  S
O612        H636   0.990       .  S
Zr613       O616   2.376       .  S
Zr613       O618   2.390       .  S
Zr613       O619   2.385       .  S
Zr614       O615   2.383       .  S
Zr614       O617   2.385       .  S
Zr614       O620   2.392       .  S
O615        H623   0.966       .  S
O618        H622   0.966       .  S
O619        H624   0.966       .  S
C637        C638   1.402       .  A
C637        C642   1.398       .  A
C637        H644   1.074       .  S
C638        C639   1.408       .  A
C639        C640   1.396       .  A
C640        C641   1.409       .  A
C640        H645   1.083       .  S
C641        C642   1.414       .  A
C642       Br643   1.919       .  S
C647        C648   1.407       .  A
C647        C652   1.405       .  A
C647        H654   1.082       .  S
C648        C649   1.410       .  A
C649        C650   1.398       .  A
C649       Br656   1.918       .  S
C650        C651   1.401       .  A
C650        H655   1.082       .  S
C651        C652   1.408       .  A
C652       Br653   1.917       .  S
C657        C658   1.404       .  A
C657        C662   1.401       .  A
C657        H664   1.083       .  S
C658        C659   1.412       .  A
C659        C660   1.402       .  A
C659       Br666   1.919       .  S
C660        C661   1.405       .  A
C660        H665   1.082       .  S
C661        C662   1.412       .  A
C662       Br663   1.914       .  S
C667        C668   1.406       .  A
C667        C672   1.401       .  A
C667        H674   1.083       .  S
C668        C669   1.418       .  A
C669        C670   1.397       .  A
C669       Br676   1.923       .  S
C670        C671   1.402       .  A
C670        H675   1.081       .  S
C671        C672   1.411       .  A
C672       Br673   1.909       .  S
C677        C678   1.407       .  A
C677        C682   1.392       .  A
C677        H684   1.083       .  S
C678        C679   1.420       .  A
C679        C680   1.408       .  A
C679       Br686   1.921       .  S
C680        C681   1.407       .  A
C680        H685   1.083       .  S
C681        C682   1.407       .  A
C687        C688   1.407       .  A
C687        C692   1.392       .  A
C687        H694   1.083       .  S
C688        C689   1.420       .  A
C689        C690   1.404       .  A
C689       Br696   1.918       .  S
C690        C691   1.401       .  A
C690        H695   1.084       .  S
C691        C692   1.403       .  A
C692       Br693   1.917       .  S
C697        C698   1.412       .  A
C697        C702   1.404       .  A
C697        H704   1.082       .  S
C698        C699   1.418       .  A
C699        C700   1.392       .  A
C700        C701   1.393       .  A
C700        H705   1.084       .  S
C701        C702   1.404       .  A
C702       Br703   1.916       .  S
C707        C708   1.398       .  A
C707        C712   1.389       .  A
C707        H714   1.085       .  S
C708        C709   1.415       .  A
C709        C710   1.407       .  A
C709       Br716   1.919       .  S
C710        C711   1.410       .  A
C710        H715   1.083       .  S
C711        C712   1.423       .  A
C712       Br713   1.927       .  S
C717        C718   1.407       .  A
C717        C722   1.392       .  A
C717        H724   1.083       .  S
C718        C719   1.420       .  A
C719        C720   1.403       .  A
C719       Br726   1.919       .  S
C720        C721   1.401       .  A
C720        H725   1.084       .  S
C721        C722   1.403       .  A
C722       Br723   1.915       .  S
C727        C728   1.407       .  A
C727        C732   1.388       .  A
C727        H734   1.083       .  S
C728        C729   1.420       .  A
C729        C730   1.413       .  A
C729       Br736   1.920       .  S
C730        C731   1.409       .  A
C730        H735   1.083       .  S
C731        C732   1.409       .  A
C732       Br733   1.918       .  S
C737        C738   1.399       .  A
C737        C742   1.393       .  A
C737        H744   1.084       .  S
C738        C739   1.411       .  A
C739        C740   1.405       .  A
C739       Br746   1.918       .  S
C740        C741   1.409       .  A
C740        H745   1.080       .  S
C741        C742   1.421       .  A
C742       Br743   1.925       .  S
C747        C748   1.409       .  A
C747        C752   1.390       .  A
C747        H754   1.081       .  S
C748        C749   1.420       .  A
C749        C750   1.406       .  A
C749       Br756   1.912       .  S
C750        C751   1.400       .  A
C750        H755   1.084       .  S
C751        C752   1.401       .  A
C752       Br753   1.922       .  S
C757        C758   1.407       .  A
C757        C762   1.400       .  A
C757        H764   1.080       .  S
C758        C759   1.412       .  A
C759        C760   1.396       .  A
C759       Br766   1.899       .  S
C760        C761   1.396       .  A
C760        H765   1.084       .  S
C761        C762   1.406       .  A
C762       Br763   1.917       .  S
C767        C768   1.408       .  A
C767        C772   1.390       .  A
C767        H774   1.083       .  S
C768        C769   1.418       .  A
C769        C770   1.405       .  A
C769       Br776   1.918       .  S
C770        C771   1.406       .  A
C770        H775   1.083       .  S
C771        C772   1.406       .  A
C777        C778   1.422       .  A
C777        C782   1.411       .  A
C777        H784   1.074       .  S
C778        C779   1.428       .  A
C779        C780   1.386       .  A
C780        C781   1.388       .  A
C780        H785   1.086       .  S
C781        C782   1.403       .  A
C782       Br783   1.917       .  S
C787        C788   1.404       .  A
C787        C792   1.397       .  A
C787        H794   1.083       .  S
C788        C789   1.411       .  A
C789        C790   1.397       .  A
C789       Br796   1.917       .  S
C790        C791   1.403       .  A
C790        H795   1.083       .  S
C791        C792   1.409       .  A
C792       Br793   1.916       .  S
C797        C798   1.406       .  A
C797        C802   1.402       .  A
C797        H804   1.083       .  S
C798        C799   1.407       .  A
C799        C800   1.398       .  A
C799       Br806   1.915       .  S
C800        C801   1.405       .  A
C800        H805   1.080       .  S
C801        C802   1.415       .  A
C802       Br803   1.919       .  S
C807        C808   1.416       .  A
C807        C812   1.380       .  A
C807        H814   1.075       .  S
C808        C809   1.428       .  A
C809        C810   1.416       .  A
C809       Br816   1.915       .  S
C810        C811   1.407       .  A
C810        H815   1.083       .  S
C811        C812   1.400       .  A
C812       Br813   1.925       .  S
C817        C818   1.400       .  A
C817        C822   1.391       .  A
C817        H824   1.077       .  S
C818        C819   1.406       .  A
C819        C820   1.399       .  A
C819       Br826   1.914       .  S
C820        C821   1.408       .  A
C820        H825   1.084       .  S
C821        C822   1.413       .  A
C822       Br823   1.919       .  S
C827        C828   1.407       .  A
C827        C832   1.414       .  A
C827        H834   1.083       .  S
C828        C829   1.398       .  A
C829        C830   1.386       .  A
C829       Br836   1.912       .  S
C830        C831   1.408       .  A
C830        H835   1.081       .  S
C831        C832   1.417       .  A
C832       Br833   1.916       .  S
C837        C838   1.410       .  A
C837        C842   1.397       .  A
C837        H844   1.083       .  S
C838        C839   1.413       .  A
C839        C840   1.391       .  A
C839       Br846   1.923       .  S
C840        C841   1.403       .  A
C840        H845   1.071       .  S
C841        C842   1.408       .  A
C847        C848   1.391       .  A
C847        C852   1.388       .  A
C847        H854   1.085       .  S
C848        C849   1.409       .  A
C849        C850   1.410       .  A
C849       Br856   1.915       .  S
C850        C851   1.409       .  A
C850        H855   1.083       .  S
C851        C852   1.416       .  A
C857        C858   1.416       .  A
C857        C862   1.379       .  A
C857        H864   1.074       .  S
C858        C859   1.428       .  A
C859        C860   1.414       .  A
C859       Br866   1.914       .  S
C860        C861   1.405       .  A
C860        H865   1.083       .  S
C861        C862   1.400       .  A
C862       Br863   1.925       .  S
C867        C868   1.409       .  A
C867        C872   1.406       .  A
C867        H874   1.083       .  S
C868        C869   1.405       .  A
C869        C870   1.392       .  A
C869       Br876   1.914       .  S
C870        C871   1.403       .  A
C870        H875   1.079       .  S
C871        C872   1.413       .  A
C872       Br873   1.918       .  S
