geometry optimzed in LAMMPS
_audit_creation_date              2020-11-30 
_audit_creation_method            'lammps2cif' 
_symmetry_space_group_name_H-M    'P1' 
_symmetry_Int_Tables_number       1 
_symmetry_cell_setting            triclinic 
loop_ 
_symmetry_equiv_pos_as_xyz 
  x,y,z 
_cell_length_a                    23.279189106449117 
_cell_length_b                    25.47373491732226 
_cell_length_c                    24.49989124103256 
_cell_angle_alpha                 86.47799546084521 
_cell_angle_beta                  90.41906925198401 
_cell_angle_gamma                 121.89658615214225 
loop_ 
_atom_site_label 
_atom_site_type_symbol 
_atom_site_fract_x 
_atom_site_fract_y 
_atom_site_fract_z 
_atom_site_charge 
C1          C  0.13963218  0.29367894  0.33628418    -0.00090
C2          C  0.41175361  0.16687689  0.12663540    -0.00090
C3          C  0.17535985  0.28380876  0.17387371    -0.00090
C4          C  0.37959928  0.17217097  0.29017544    -0.00090
O5          O  0.33357803  0.44392170  0.43255416    -0.84090
O6          O  0.06974696  0.33248893  0.00707722    -0.84250
O7          O  0.41281290  0.31453761  0.38790494    -0.85920
O8          O  0.34870006  0.31242672  0.05339035    -0.84680
O9          O  0.39716323  0.37423358  0.12536963    -0.84270
O10         O  0.97345293  0.39252343  0.32661532    -0.85640
O11         O  0.44858723  0.28590375  0.50226018    -0.84120
O12         O  0.32200213  0.34902000  0.43020732    -0.83700
Zr13       Zr  0.42161818  0.36181221  0.47343855     2.84310
O14         O  0.01242960  0.39694501  0.03778316    -1.05680
O15         O  0.44139844  0.44569170  0.41462145    -1.06410
C16         C  0.30399668  0.38794609  0.41766647     1.09020
C17         C  0.50625733  0.28571665  0.01272679     1.08960
C18         C  0.43596768  0.33460959  0.33829327     1.11940
C19         C  0.34733216  0.32706326  0.10293682     1.09720
H20         H  0.02789717  0.37794875  0.41809511     0.35280
O21         O  0.02833056  0.41093640  0.43544493    -1.26630
H22         H  0.37381907  0.41834473  0.54101191     0.34960
O23         O  0.41868424  0.43331161  0.52662671    -1.28310
O24         O  0.23698877  0.52439543  0.01710474    -0.84080
O25         O  0.99303012  0.12829246  0.45190094    -0.85580
O26         O  0.10482192  0.44986529  0.32969908    -0.84160
O27         O  0.06029958  0.40580320  0.14061740    -0.84210
O28         O  0.43821005  0.00118036  0.12850546    -0.83920
O29         O  0.98792722  0.54357339  0.32175062    -0.83730
O30         O  0.20330571  0.13829728  0.41111845    -0.84100
O31         O  0.13345370  0.13906624  0.07848531    -0.83560
O32         O  0.15879858  0.07727586  0.33809899    -0.84620
O33         O  0.07343522  0.06062254  0.14506774    -0.83780
O34         O  0.16524979  0.47327811  0.40391562    -0.84180
O35         O  0.42514544  0.05367377  0.38115110    -0.83900
O36         O  0.39515423  0.02494780  0.55105146    -0.83580
O37         O  0.13993729  0.41119148  0.08183697    -0.83960
O38         O  0.23908251  0.11753974  0.02143920    -0.84260
O39         O  0.10650036  0.17433404  0.46772002    -0.85600
Zr40       Zr  0.11984451  0.44494490  0.99563157     2.83100
Zr41       Zr  0.44414159  0.01838860  0.46639194     2.83500
Zr42       Zr  0.04457925  0.49184177  0.37007605     2.84090
Zr43       Zr  0.00793952  0.46318657  0.09536743     2.83360
Zr44       Zr  0.12663732  0.09253367  0.49121540     2.84220
O45         O  0.02192031  0.04526337  0.53568816    -1.06170
O46         O  0.12934458  0.52542222  0.43692127    -1.05670
C47         C  0.26512193  0.08400411  0.02726253     1.08990
C48         C  0.05449017  0.17519460  0.45115250     1.11610
C49         C  0.13749367  0.43789757  0.36512587     1.09170
C50         C  0.10589455  0.39287287  0.12722316     1.09530
C51         C  0.40672546  0.02432188  0.10406506     1.09110
C52         C  0.94974118  0.06255723  0.33471046     1.08660
C53         C  0.20702487  0.12378118  0.36215063     1.09090
C54         C  0.11077796  0.11879834  0.12802587     1.08600
H55         H  0.05831256  0.09664534  0.39807137     0.35280
O56         O  0.04704821  0.06148045  0.42278845    -1.27270
H57         H  0.14643506  0.02725590  0.08138652     0.35300
O58         O  0.11315081  0.01397369  0.05329788    -1.28650
C59         C  0.40140323  0.12961507  0.31768713    -0.14030
C60         C  0.43220436  0.10166762  0.29557071    -0.29210
H61         H  0.39061545  0.12258557  0.36152537     0.14990
H62         H  0.94724801  0.10963602  0.25476350     0.15570
C63         C  0.30281289  0.14039252  0.30230213    -0.14030
C64         C  0.27454858  0.16272274  0.33469412    -0.29210
H65         H  0.27051872  0.09380468  0.28888158     0.14990
H66         H  0.30563620  0.20748974  0.35113567     0.15570
C67         C  0.42047393  0.23560848  0.31471376    -0.14030
C68         C  0.41691299  0.28589133  0.29919518    -0.29210
H69         H  0.44840656  0.23820586  0.35134974     0.14990
H70         H  0.39222494  0.28709351  0.26178544     0.15570
C71         C  0.13325594  0.22092175  0.14896921    -0.14030
C72         C  0.13049274  0.16801232  0.16676448    -0.29210
H73         H  0.10997210  0.22074614  0.11020990     0.14990
H74         H  0.15016514  0.16440473  0.20619456     0.15570
C75         C  0.15724478  0.32852102  0.14460060    -0.14030
C76         C  0.11981989  0.35136071  0.16387420    -0.29210
H77         H  0.17543079  0.34090464  0.10221697     0.14990
H78         H  0.09551616  0.33597413  0.20398321     0.15570
C79         C  0.28032486  0.28892851  0.13239448    -0.14030
C80         C  0.25250307  0.31308125  0.16339435    -0.29210
H81         H  0.24837916  0.24331729  0.11760634     0.14990
H82         H  0.28557458  0.36003048  0.17575122     0.15570
C83         C  0.43325867  0.12060669  0.13062728    -0.14030
C84         C  0.38845856  0.05924493  0.13619043    -0.29210
H85         H  0.48491974  0.13687923  0.11723026     0.14990
H86         H  0.33543861  0.04053822  0.14625334     0.15570
C87         C  0.33325377  0.11437042  0.04910452    -0.14030
C88         C  0.34586836  0.14294267  0.09626639    -0.29210
H89         H  0.37079903  0.10841727  0.02966671     0.14990
H90         H  0.30493912  0.14441443  0.11590160     0.15570
C91         C  0.49248084  0.23175253  0.04778809    -0.14030
C92         C  0.46629971  0.22746187  0.09815110    -0.29210
H93         H  0.48380329  0.19090827  0.02896712     0.14990
H94         H  0.47464914  0.26976329  0.11445557     0.15570
C95         C  0.39197947  0.17882509  0.23085741    -0.10870
C96         C  0.40127905  0.17743626  0.18288610    -0.12430
C97         C  0.08126355  0.23641678  0.36668849    -0.14030
C98         C  0.07077514  0.23270385  0.42139309    -0.29210
H99         H  0.05636534  0.19361470  0.34578967     0.14990
H100        H  0.09978705  0.27314684  0.44418484     0.15570
C101        C  0.12731611  0.37665107  0.37169883    -0.14030
C102        C  0.12482156  0.34513209  0.32939138    -0.29210
H103        H  0.13581963  0.36374662  0.41229586     0.14990
H104        H  0.12160653  0.36279246  0.28884104     0.15570
C105        C  0.20469332  0.31234550  0.36684575    -0.14030
C106        C  0.24916750  0.37070875  0.37981631    -0.29210
H107        H  0.21231151  0.27546120  0.38197667     0.14990
H108        H  0.24707105  0.40929597  0.36122001     0.15570
C109        C  0.14910841  0.27928486  0.28088324    -0.10870
C110        C  0.16034360  0.27738042  0.23320286    -0.12430
C111        C  0.14117911  0.29425358  0.83605422    -0.00090
C112        C  0.40678515  0.16231780  0.62582963    -0.00090
C113        C  0.16938961  0.27989347  0.67326241    -0.00090
C114        C  0.38094357  0.17105971  0.78989181    -0.00090
O115        O  0.33796821  0.44349971  0.92906822    -0.84090
O116        O  0.06701448  0.33317518  0.50769515    -0.84250
O117        O  0.41432374  0.31327483  0.88655897    -0.85920
O118        O  0.34395572  0.31048397  0.55313674    -0.84680
O119        O  0.38929406  0.37054599  0.62660622    -0.84270
O120        O  0.98046409  0.39525501  0.82093699    -0.85640
O121        O  0.45261204  0.28665932  0.00221080    -0.84120
O122        O  0.32399472  0.34739905  0.92959870    -0.83700
Zr123      Zr  0.42449300  0.36148285  0.97219863     2.84310
O124        O  0.01187146  0.39893989  0.54131301    -1.05680
O125        O  0.44177539  0.44447743  0.91337341    -1.06410
C126        C  0.30734607  0.38692095  0.91530736     1.09020
C127        C  0.50179050  0.28465445  0.51389816     1.08960
C128        C  0.43464791  0.33270980  0.83622152     1.11940
C129        C  0.34088305  0.32378448  0.60283889     1.09720
H130        H  0.03390408  0.37828535  0.91321708     0.35280
O131        O  0.03405218  0.41100199  0.93084928    -1.26630
H132        H  0.37949390  0.42013292  0.04020294     0.34960
O133        O  0.42382090  0.43456681  0.02492339    -1.28310
O134        O  0.23535129  0.52662098  0.51668031    -0.84080
O135        O  0.99662381  0.13198764  0.95304180    -0.85580
O136        O  0.11526852  0.45481023  0.82793825    -0.84160
O137        O  0.06362880  0.40977452  0.64174951    -0.84210
O138        O  0.43555613  0.99793236  0.62713922    -0.83920
O139        O  0.99682334  0.54796215  0.81888918    -0.83730
O140        O  0.20726756  0.14139068  0.91226423    -0.84100
O141        O  0.12868553  0.13548481  0.57732184    -0.83560
O142        O  0.16234972  0.08023524  0.83939403    -0.84620
O143        O  0.06843024  0.05696641  0.64378442    -0.83780
O144        O  0.17125933  0.47676431  0.90433718    -0.84180
O145        O  0.42763714  0.05410266  0.88148197    -0.83900
O146        O  0.39972885  0.02950322  0.05195847    -0.83580
O147        O  0.13925090  0.41092541  0.58138720    -0.83960
O148        O  0.23464453  0.11301902  0.52059152    -0.84260
O149        O  0.11002832  0.17807086  0.96927812    -0.85600
Zr150      Zr  0.11778708  0.44594074  0.49649241     2.83100
Zr151      Zr  0.44745634  0.02097959  0.96745507     2.83500
Zr152      Zr  0.05099853  0.49357941  0.86698818     2.84090
Zr153      Zr  0.01179770  0.46804428  0.59774624     2.83360
Zr154      Zr  0.13065071  0.09641339  0.99228170     2.84220
O155        O  0.02586922  0.04879810  0.03657897    -1.06170
O156        O  0.13283691  0.52521922  0.93640790    -1.05670
C157        C  0.26048446  0.07934446  0.52648961     1.08990
C158        C  0.05803601  0.17891096  0.95257722     1.11610
C159        C  0.14635810  0.44237750  0.86459025     1.09170
C160        C  0.10676435  0.39431143  0.62744532     1.09530
C161        C  0.40302826  0.02021736  0.60305955     1.09110
C162        C  0.95317092  0.06493447  0.83495060     1.08660
C163        C  0.21076207  0.12636654  0.86348033     1.09090
C164        C  0.10569598  0.11517097  0.62682624     1.08600
H165        H  0.06209288  0.10063854  0.89903595     0.35280
O166        O  0.05095419  0.06558077  0.92387509    -1.27270
H167        H  0.14196987  0.02316576  0.58027832     0.35300
O168        O  0.10877434  0.00990981  0.55212310    -1.28650
C169        C  0.40375606  0.12948994  0.81767004    -0.14030
C170        C  0.43441363  0.10138994  0.79567735    -0.29210
H171        H  0.39416532  0.12363323  0.86164750     0.14990
H172        H  0.94863422  0.10913425  0.75400386     0.15570
C173        C  0.30479870  0.14008375  0.80375208    -0.14030
C174        C  0.27819987  0.16372683  0.83631865    -0.29210
H175        H  0.27148846  0.09339604  0.79086576     0.14990
H176        H  0.31015693  0.20812846  0.85300195     0.15570
C177        C  0.42278251  0.23540102  0.81240953    -0.14030
C178        C  0.41607203  0.28398823  0.79741085    -0.29210
H179        H  0.45344297  0.23986798  0.84768255     0.14990
H180        H  0.38832316  0.28311116  0.76130675     0.15570
C181        C  0.12691576  0.21688354  0.64846357    -0.14030
C182        C  0.12496700  0.16421325  0.66576301    -0.29210
H183        H  0.10324771  0.21664484  0.60991430     0.14990
H184        H  0.14528917  0.16082419  0.70493101     0.15570
C185        C  0.15226125  0.32518199  0.64382567    -0.14030
C186        C  0.11905415  0.35164587  0.66389683    -0.29210
H187        H  0.16843999  0.33568440  0.60093538     0.14990
H188        H  0.09686863  0.33854738  0.70474940     0.15570
C189        C  0.27349169  0.28496032  0.63097101    -0.14030
C190        C  0.24611910  0.30860254  0.66290593    -0.29210
H191        H  0.24144386  0.24013534  0.61477600     0.14990
H192        H  0.27946884  0.35505875  0.67627212     0.15570
C193        C  0.42898032  0.11658610  0.62865511    -0.14030
C194        C  0.38492417  0.05515218  0.63534558    -0.29210
H195        H  0.47989411  0.13295761  0.61348759     0.14990
H196        H  0.33218601  0.03596611  0.64685481     0.15570
C197        C  0.32837451  0.10958716  0.54857684    -0.14030
C198        C  0.34067585  0.13789933  0.59586975    -0.29210
H199        H  0.36618266  0.10410426  0.52897104     0.14990
H200        H  0.29957578  0.13887977  0.61575548     0.15570
C201        C  0.48670746  0.22926269  0.54723230    -0.14030
C202        C  0.46039027  0.22355525  0.59775818    -0.29210
H203        H  0.47764095  0.18897955  0.52723641     0.14990
H204        H  0.46845999  0.26529366  0.61505490     0.15570
C205        C  0.39042546  0.17539632  0.73043960    -0.10870
C206        C  0.39708365  0.17243953  0.68235465    -0.12430
C207        C  0.08240949  0.23867613  0.86774245    -0.14030
C208        C  0.07437584  0.23629446  0.92258135    -0.29210
H209        H  0.05513415  0.19548475  0.84753652     0.14990
H210        H  0.10570269  0.27712868  0.94435669     0.15570
C211        C  0.13614404  0.38111586  0.87141388    -0.14030
C212        C  0.12913847  0.34743863  0.82948041    -0.29210
H213        H  0.14596479  0.36869643  0.91177696     0.14990
H214        H  0.12401771  0.36418164  0.78914338     0.15570
C215        C  0.20679902  0.31142569  0.86528844    -0.14030
C216        C  0.25381972  0.36994897  0.87610367    -0.29210
H217        H  0.21175413  0.27373668  0.88274522     0.14990
H218        H  0.25391957  0.40879352  0.85535125     0.15570
C219        C  0.14704046  0.27781605  0.78056839    -0.10870
C220        C  0.15529895  0.27409839  0.73266986    -0.12430
C221        C  0.14062381  0.79357366  0.33589023    -0.00090
C222        C  0.41303885  0.66579447  0.12662279    -0.00090
C223        C  0.17184937  0.78250508  0.17288690    -0.00090
C224        C  0.37868872  0.67103973  0.28996847    -0.00090
O225        O  0.33717477  0.94349360  0.42702284    -0.84090
O226        O  0.06827914  0.83296100  0.00821278    -0.84250
O227        O  0.41538328  0.81472798  0.38675076    -0.85920
O228        O  0.34858707  0.81441031  0.05305255    -0.84680
O229        O  0.39406940  0.87470306  0.12638094    -0.84270
O230        O  0.97433711  0.89149945  0.32086613    -0.85640
O231        O  0.45264017  0.78747317  0.50180718    -0.84120
O232        O  0.32473711  0.84803608  0.42775936    -0.83700
Zr233      Zr  0.42439410  0.86231041  0.47210318     2.84310
O234        O  0.01055669  0.89735723  0.03946284    -1.05680
O235        O  0.44359434  0.94582604  0.41305723    -1.06410
C236        C  0.30765928  0.88714156  0.41300559     1.09020
C237        C  0.50800523  0.78856393  0.01503494     1.08960
C238        C  0.43771453  0.83459907  0.33692825     1.11940
C239        C  0.34530200  0.82805749  0.10263977     1.09720
H240        H  0.02887063  0.87435285  0.41310222     0.35280
O241        O  0.02817033  0.90676147  0.43066268    -1.26630
H242        H  0.37663672  0.91912787  0.53909680     0.34960
O243        O  0.42144999  0.93406553  0.52466139    -1.28310
O244        O  0.23492186  0.02572859  0.01825303    -0.84080
O245        O  0.99565759  0.63264051  0.45565792    -0.85580
O246        O  0.10971953  0.95084898  0.32890696    -0.84160
O247        O  0.05729960  0.90547225  0.14130711    -0.84210
O248        O  0.44389899  0.50243036  0.12705614    -0.83920
O249        O  0.99017064  0.04432543  0.31916196    -0.83730
O250        O  0.20523278  0.64237889  0.40962685    -0.84100
O251        O  0.13463538  0.63865383  0.07766843    -0.83560
O252        O  0.15816929  0.57839938  0.33878094    -0.84620
O253        O  0.07426944  0.56003188  0.14401860    -0.83780
O254        O  0.16565071  0.97443948  0.40534585    -0.84180
O255        O  0.42367545  0.55300358  0.38290439    -0.83900
O256        O  0.39562668  0.52704501  0.55327532    -0.83580
O257        O  0.13855453  0.91253041  0.08338513    -0.83960
O258        O  0.24138286  0.61625027  0.02079341    -0.84260
O259        O  0.10995849  0.67893186  0.46799201    -0.85600
Zr260      Zr  0.11792147  0.94550479  0.99716339     2.83100
Zr261      Zr  0.44265531  0.51825821  0.46862167     2.83500
Zr262      Zr  0.04490803  0.98970523  0.36687243     2.84090
Zr263      Zr  0.00581623  0.96401451  0.09637291     2.83360
Zr264      Zr  0.13166878  0.59790307  0.49138454     2.84220
O265        O  0.02845483  0.55144000  0.53785986    -1.06170
O266        O  0.12606781  0.02125048  0.43670472    -1.05670
C267        C  0.26726494  0.58257297  0.02648293     1.08990
C268        C  0.05718052  0.67942758  0.45295666     1.11610
C269        C  0.14225768  0.94013227  0.36548409     1.09170
C270        C  0.10328661  0.89289442  0.12814926     1.09530
C271        C  0.41046852  0.52420413  0.10375115     1.09110
C272        C  0.94864184  0.56280347  0.33746891     1.08660
C273        C  0.20721878  0.62602084  0.36108875     1.09090
C274        C  0.11127202  0.61825852  0.12705334     1.08600
H275        H  0.05937159  0.59983093  0.39971058     0.35280
O276        O  0.04920558  0.56534566  0.42495706    -1.27270
H277        H  0.14861514  0.52619541  0.08044602     0.35300
O278        O  0.11538529  0.51316030  0.05232529    -1.28650
C279        C  0.39951082  0.62815359  0.31830066    -0.14030
C280        C  0.43055691  0.60016802  0.29683260    -0.29210
H281        H  0.38817157  0.62122277  0.36205621     0.14990
H282        H  0.94317656  0.60536031  0.25596473     0.15570
C283        C  0.30192908  0.64009489  0.30165434    -0.14030
C284        C  0.27383444  0.66407449  0.33213821    -0.29210
H285        H  0.26948838  0.59280528  0.28985068     0.14990
H286        H  0.30487059  0.70989767  0.34658966     0.15570
C287        C  0.42020629  0.73460348  0.31422122    -0.14030
C288        C  0.41831116  0.78560311  0.29800304    -0.29210
H289        H  0.44729559  0.73681739  0.35129551     0.14990
H290        H  0.39472395  0.78732964  0.26010282     0.15570
C291        C  0.13062921  0.71945160  0.14803684    -0.14030
C292        C  0.12955985  0.66728345  0.16573348    -0.29210
H293        H  0.10718618  0.71880732  0.10926138     0.14990
H294        H  0.14972357  0.66431329  0.20510595     0.15570
C295        C  0.15262126  0.82665946  0.14402050    -0.14030
C296        C  0.11648939  0.85043463  0.16418299    -0.29210
H297        H  0.16958963  0.83850498  0.10133453     0.14990
H298        H  0.09328058  0.83567951  0.20469989     0.15570
C299        C  0.27743596  0.78940810  0.13060756    -0.14030
C300        C  0.24905653  0.81265660  0.16213355    -0.29210
H301        H  0.24588878  0.74430095  0.11478914     0.14990
H302        H  0.28175167  0.85932600  0.17523426     0.15570
C303        C  0.43619870  0.62066445  0.12978552    -0.14030
C304        C  0.39259127  0.55914269  0.13639074    -0.29210
H305        H  0.48755133  0.63763265  0.11511607     0.14990
H306        H  0.33976558  0.53983331  0.14768548     0.15570
C307        C  0.33518667  0.61269811  0.04877758    -0.14030
C308        C  0.34722980  0.64105417  0.09601818    -0.29210
H309        H  0.37315489  0.60731512  0.02933987     0.14990
H310        H  0.30585906  0.64195759  0.11550466     0.15570
C311        C  0.49347525  0.73341858  0.04855490    -0.14030
C312        C  0.46670061  0.72736387  0.09899174    -0.29210
H313        H  0.48483777  0.69326829  0.02854302     0.14990
H314        H  0.47473787  0.76896040  0.11657136     0.15570
C315        C  0.39152669  0.67692647  0.23076765    -0.10870
C316        C  0.40148336  0.67522535  0.18299546    -0.12430
C317        C  0.08205073  0.73757246  0.36727861    -0.14030
C318        C  0.07216438  0.73580631  0.42186545    -0.29210
H319        H  0.05640933  0.69406628  0.34741588     0.14990
H320        H  0.10096870  0.77719874  0.44347634     0.15570
C321        C  0.13653613  0.88072318  0.37174244    -0.14030
C322        C  0.12771805  0.84624421  0.32997110    -0.29210
H323        H  0.14946555  0.86987160  0.41153124     0.14990
H324        H  0.11950865  0.86146737  0.29001163     0.15570
C325        C  0.20608019  0.81076619  0.36518869    -0.14030
C326        C  0.25449883  0.86960011  0.37335261    -0.29210
H327        H  0.20964944  0.77336980  0.38537137     0.14990
H328        H  0.25481623  0.90786852  0.35105213     0.15570
C329        C  0.14754776  0.77827018  0.28019792    -0.10870
C330        C  0.15738036  0.77593189  0.23230558    -0.12430
C331        C  0.14431922  0.79631513  0.83681932    -0.00090
C332        C  0.41188913  0.66698271  0.62593671    -0.00090
C333        C  0.17329010  0.78457856  0.67357676    -0.00090
C334        C  0.38274782  0.67430310  0.78978365    -0.00090
O335        O  0.33924723  0.94615415  0.93032315    -0.84090
O336        O  0.06216113  0.82821742  0.51065064    -0.84250
O337        O  0.41878156  0.81717670  0.88779579    -0.85920
O338        O  0.34685395  0.81262533  0.55235434    -0.84680
O339        O  0.39351135  0.87278719  0.62558066    -0.84270
O340        O  0.97893678  0.89586474  0.82260357    -0.85640
O341        O  0.45452718  0.78934673  0.00343649    -0.84120
O342        O  0.32805266  0.85134539  0.92874517    -0.83700
Zr343      Zr  0.42710204  0.86458142  0.97337428     2.84310
O344        O  0.00604915  0.89374359  0.53799867    -1.05680
O345        O  0.44698699  0.94822884  0.91429622    -1.06410
C346        C  0.31025450  0.89024564  0.91536047     1.09020
C347        C  0.50633329  0.78692996  0.51313686     1.08960
C348        C  0.44153060  0.83716208  0.83803859     1.11940
C349        C  0.34436713  0.82650267  0.60200885     1.09720
H350        H  0.03233069  0.87855411  0.91486699     0.35280
O351        O  0.03220837  0.91122746  0.93238920    -1.26630
H352        H  0.37927750  0.92172815  0.04005310     0.34960
O353        O  0.42415183  0.93653647  0.02581799    -1.28310
O354        O  0.23028760  0.02110658  0.51735458    -0.84080
O355        O  0.99986438  0.63227828  0.95358107    -0.85580
O356        O  0.11262339  0.95357590  0.83027650    -0.84160
O357        O  0.05483082  0.90371181  0.64101909    -0.84210
O358        O  0.43411272  0.49843886  0.62961281    -0.83920
O359        O  0.99369238  0.04678495  0.81970445    -0.83730
O360        O  0.20906452  0.64281862  0.91145328    -0.84100
O361        O  0.13460248  0.64132276  0.57777053    -0.83560
O362        O  0.16425439  0.58166764  0.83852277    -0.84620
O363        O  0.07979593  0.56375202  0.64588547    -0.83780
O364        O  0.16985654  0.97661346  0.90616006    -0.84180
O365        O  0.42575490  0.55452927  0.88214754    -0.83900
O366        O  0.40034712  0.52741725  0.05204107    -0.83580
O367        O  0.13586538  0.91086135  0.58279713    -0.83960
O368        O  0.24054828  0.61901948  0.51927438    -0.84260
O369        O  0.11335772  0.67815114  0.96913995    -0.85600
Zr370      Zr  0.11328806  0.94117402  0.49616756     2.83100
Zr371      Zr  0.44641081  0.51888457  0.96666811     2.83500
Zr372      Zr  0.04893728  0.99358393  0.86837531     2.84090
Zr373      Zr  0.00155040  0.96016076  0.59519882     2.83360
Zr374      Zr  0.13323032  0.59598308  0.99168429     2.84220
O375        O  0.02860370  0.54861044  0.03624471    -1.06170
O376        O  0.13056634  0.02542403  0.93773567    -1.05670
C377        C  0.26606757  0.58506131  0.52543388     1.08990
C378        C  0.06132931  0.67916083  0.95288134     1.11610
C379        C  0.14480649  0.94201158  0.86657985     1.09170
C380        C  0.10144423  0.89190849  0.62797475     1.09530
C381        C  0.40332289  0.52233825  0.60529054     1.09110
C382        C  0.95674591  0.56622048  0.83493924     1.08660
C383        C  0.21235737  0.62833849  0.86242091     1.09090
C384        C  0.11415994  0.62153798  0.62791548     1.08600
H385        H  0.06476187  0.60067946  0.89877187     0.35280
O386        O  0.05359132  0.56536493  0.92326369    -1.27270
H387        H  0.15086376  0.52984719  0.58017401     0.35300
O388        O  0.11704141  0.51649191  0.55253248    -1.28650
C389        C  0.40291930  0.63080152  0.81772115    -0.14030
C390        C  0.43067023  0.60031271  0.79567616    -0.29210
H391        H  0.39336479  0.62508838  0.86170293     0.14990
H392        H  0.94065508  0.60412903  0.75469210     0.15570
C393        C  0.30646077  0.64395397  0.80206781    -0.14030
C394        C  0.27941600  0.66704703  0.83468968    -0.29210
H395        H  0.27336441  0.59743868  0.78871798     0.14990
H396        H  0.31113792  0.71165222  0.85123250     0.15570
C397        C  0.42503969  0.73788547  0.81392881    -0.14030
C398        C  0.42198191  0.78848655  0.79875226    -0.29210
H399        H  0.45330744  0.74027259  0.85028178     0.14990
H400        H  0.39691274  0.78984941  0.76163028     0.15570
C401        C  0.13111073  0.72135441  0.64958857    -0.14030
C402        C  0.13246219  0.67033259  0.66653944    -0.29210
H403        H  0.10518155  0.71965988  0.61194836     0.14990
H404        H  0.15523302  0.66857592  0.70490132     0.15570
C405        C  0.15393777  0.82856690  0.64478665    -0.14030
C406        C  0.11646489  0.85113273  0.66463531    -0.29210
H407        H  0.17098836  0.84041668  0.60212166     0.14990
H408        H  0.09334601  0.83633809  0.70523071     0.15570
C409        C  0.27696712  0.78910856  0.63030097    -0.14030
C410        C  0.25005168  0.81364597  0.66186486    -0.29210
H411        H  0.24476343  0.74416794  0.61451987     0.14990
H412        H  0.28367906  0.86037112  0.67452491     0.15570
C413        C  0.43261098  0.62018854  0.62953182    -0.14030
C414        C  0.38731230  0.55903222  0.63712512    -0.29210
H415        H  0.48342625  0.63546124  0.61462640     0.14990
H416        H  0.33491574  0.54126452  0.64876414     0.15570
C417        C  0.33390857  0.61496540  0.54788908    -0.14030
C418        C  0.34627539  0.64347880  0.59516287    -0.29210
H419        H  0.37134914  0.60861049  0.52881827     0.14990
H420        H  0.30539772  0.64520891  0.61455386     0.15570
C421        C  0.49239120  0.73245509  0.54736778    -0.14030
C422        C  0.46681170  0.72769895  0.59798093    -0.29210
H423        H  0.48206963  0.69154739  0.52786834     0.14990
H424        H  0.47616528  0.76993878  0.61513101     0.15570
C425        C  0.39415644  0.67993862  0.73038935    -0.10870
C426        C  0.40176828  0.67750349  0.68230853    -0.12430
C427        C  0.08667859  0.73961574  0.86825776    -0.14030
C428        C  0.07753155  0.73665039  0.92305270    -0.29210
H429        H  0.06130669  0.69650664  0.84786121     0.14990
H430        H  0.10713251  0.77748808  0.94528796     0.15570
C431        C  0.13661748  0.88149404  0.87300444    -0.14030
C432        C  0.13029328  0.84831495  0.83084397    -0.29210
H433        H  0.14746603  0.86945309  0.91314177     0.14990
H434        H  0.12408064  0.86463168  0.79060356     0.15570
C435        C  0.21018850  0.81441267  0.86574094    -0.14030
C436        C  0.25651309  0.87305874  0.87643781    -0.29210
H437        H  0.21611932  0.77717449  0.88290699     0.14990
H438        H  0.25546398  0.91157176  0.85622338     0.15570
C439        C  0.15120452  0.78123443  0.78109202    -0.10870
C440        C  0.16018441  0.77878184  0.73308993    -0.12430
C441        C  0.64464842  0.29730621  0.33576926    -0.00090
C442        C  0.91165413  0.16747232  0.12880219    -0.00090
C443        C  0.67568257  0.28439317  0.17267197    -0.00090
C444        C  0.88101337  0.17319127  0.29272080    -0.00090
O445        O  0.83598952  0.44577901  0.43723980    -0.84090
O446        O  0.56820873  0.33046980  0.00215222    -0.84250
O447        O  0.91328861  0.31530567  0.39447398    -0.85920
O448        O  0.84982401  0.31332648  0.05286989    -0.84680
O449        O  0.89621341  0.37277801  0.12662406    -0.84270
O450        O  0.47462601  0.39261882  0.32129955    -0.85640
O451        O  0.95121794  0.28886557  0.50745665    -0.84120
O452        O  0.82311887  0.35025911  0.43641097    -0.83700
Zr453      Zr  0.92299363  0.36408705  0.48050480     2.84310
O454        O  0.51145350  0.39548505  0.03454420    -1.05680
O455        O  0.94266072  0.44705432  0.42003002    -1.06410
C456        C  0.80594134  0.38956175  0.42269370     1.09020
C457        C  0.00752702  0.28733993  0.01551484     1.08960
C458        C  0.93572501  0.33475093  0.34438445     1.11940
C459        C  0.84718761  0.32652730  0.10271502     1.09720
H460        H  0.52779901  0.37594294  0.41341304     0.35280
O461        O  0.52774859  0.40855666  0.43108685    -1.26630
H462        H  0.88131438  0.42454498  0.54938818     0.34960
O463        O  0.92487711  0.43846832  0.53278360    -1.28310
O464        O  0.73516089  0.52277281  0.01310940    -0.84080
O465        O  0.49579476  0.13068831  0.44985018    -0.85580
O466        O  0.60920260  0.45290729  0.32749867    -0.84160
O467        O  0.56240087  0.40758647  0.13709891    -0.84210
O468        O  0.93880368  0.00223490  0.12996868    -0.83920
O469        O  0.48923641  0.54428834  0.31901788    -0.83730
O470        O  0.70386381  0.14056167  0.40842367    -0.84100
O471        O  0.63276849  0.13981160  0.07673072    -0.83560
O472        O  0.65933109  0.07900378  0.33568388    -0.84620
O473        O  0.57405378  0.06108326  0.14339468    -0.83780
O474        O  0.66429190  0.47476769  0.40434011    -0.84180
O475        O  0.92372786  0.05206586  0.38293122    -0.83900
O476        O  0.89323530  0.02389123  0.55268353    -0.83580
O477        O  0.63747552  0.40798774  0.07648620    -0.83960
O478        O  0.73969675  0.11864621  0.02159566    -0.84260
O479        O  0.60926134  0.17671410  0.46570323    -0.85600
Zr480      Zr  0.61779636  0.44282146  0.99016998     2.83100
Zr481      Zr  0.94199547  0.01635074  0.46835189     2.83500
Zr482      Zr  0.54468517  0.49099294  0.36710716     2.84090
Zr483      Zr  0.50889372  0.46335773  0.09109491     2.83360
Zr484      Zr  0.62895214  0.09483130  0.48916376     2.84220
O485        O  0.52421785  0.04691044  0.53336409    -1.06170
O486        O  0.62671208  0.52252174  0.43650327    -1.05670
C487        C  0.76559381  0.08504232  0.02810218     1.08990
C488        C  0.55729311  0.17765381  0.44925475     1.11610
C489        C  0.64021362  0.44061520  0.36429343     1.09170
C490        C  0.60637459  0.39292849  0.12319540     1.09530
C491        C  0.90620566  0.02443262  0.10579924     1.09110
C492        C  0.45035060  0.06343433  0.33271913     1.08660
C493        C  0.70724030  0.12582028  0.35953024     1.09090
C494        C  0.61070484  0.11935033  0.12642083     1.08600
H495        H  0.56004114  0.09853896  0.39592233     0.35280
O496        O  0.54903932  0.06350256  0.42073992    -1.27270
H497        H  0.64667295  0.02777401  0.08002466     0.35300
O498        O  0.61373617  0.01460789  0.05168014    -1.28650
C499        C  0.90185904  0.12975107  0.32000803    -0.14030
C500        C  0.93255449  0.10172576  0.29779061    -0.29210
H501        H  0.89014987  0.12185342  0.36371798     0.14990
H502        H  0.44611839  0.10884781  0.25241330     0.15570
C503        C  0.80407277  0.14126562  0.30315519    -0.14030
C504        C  0.77422914  0.16471122  0.33207429    -0.29210
H505        H  0.77263826  0.09397566  0.29104077     0.14990
H506        H  0.80358544  0.21042959  0.34688956     0.15570
C507        C  0.92086198  0.23581213  0.31919067    -0.14030
C508        C  0.91720159  0.28629436  0.30486980    -0.29210
H509        H  0.94779470  0.23733126  0.35615872     0.14990
H510        H  0.89366195  0.28846932  0.26708031     0.15570
C511        C  0.63272471  0.22113947  0.14834521    -0.14030
C512        C  0.63057965  0.16837289  0.16552839    -0.29210
H513        H  0.60830916  0.22062537  0.11012595     0.14990
H514        H  0.65140144  0.16499798  0.20444121     0.15570
C515        C  0.65807058  0.32912004  0.14260598    -0.14030
C516        C  0.62161460  0.35316585  0.16119513    -0.29210
H517        H  0.67525059  0.33990683  0.09995359     0.14990
H518        H  0.59898294  0.33998856  0.20197671     0.15570
C519        C  0.77961048  0.28838361  0.13083509    -0.14030
C520        C  0.75239667  0.31284062  0.16198317    -0.29210
H521        H  0.74735706  0.24329444  0.11517201     0.14990
H522        H  0.78594625  0.35956127  0.17470513     0.15570
C523        C  0.93314426  0.12110183  0.13234977    -0.14030
C524        C  0.88829029  0.05970632  0.13789727    -0.29210
H525        H  0.98470207  0.13733537  0.11868296     0.14990
H526        H  0.83533386  0.04111101  0.14811910     0.15570
C527        C  0.83333716  0.11517617  0.05095395    -0.14030
C528        C  0.84562885  0.14348072  0.09835026    -0.29210
H529        H  0.87110613  0.10934016  0.03176304     0.14990
H530        H  0.80462161  0.14482694  0.11794771     0.15570
C531        C  0.99251112  0.23276575  0.05018939    -0.14030
C532        C  0.96610791  0.22821186  0.10044205    -0.29210
H533        H  0.98298094  0.19183880  0.03114314     0.14990
H534        H  0.97469558  0.27047882  0.11700377     0.15570
C535        C  0.89433321  0.18074947  0.23340817    -0.10870
C536        C  0.90201438  0.17833504  0.18527405    -0.12430
C537        C  0.58513561  0.24007918  0.36541787    -0.14030
C538        C  0.57390434  0.23557385  0.42006346    -0.29210
H539        H  0.55976470  0.19757344  0.34402623     0.14990
H540        H  0.60325842  0.27559124  0.44329958     0.15570
C541        C  0.63083239  0.37968625  0.37062322    -0.14030
C542        C  0.63074026  0.34926798  0.32829091    -0.29210
H543        H  0.63704135  0.36580249  0.41159135     0.14990
H544        H  0.62939125  0.36773082  0.28751874     0.15570
C545        C  0.70911039  0.31533401  0.36757348    -0.14030
C546        C  0.75199943  0.37289621  0.38366597    -0.29210
H547        H  0.71706545  0.27829086  0.38134749     0.14990
H548        H  0.75007811  0.41194545  0.36616756     0.15570
C549        C  0.65377710  0.28260756  0.28027278    -0.10870
C550        C  0.66223150  0.27933505  0.23223421    -0.12430
C551        C  0.65224590  0.29733165  0.82817289    -0.00090
C552        C  0.90981364  0.16461552  0.62660068    -0.00090
C553        C  0.66928635  0.28028227  0.66391064    -0.00090
C554        C  0.88319954  0.17371696  0.79061798    -0.00090
O555        O  0.84026371  0.44668566  0.93147004    -0.84090
O556        O  0.56402784  0.32992579  0.50599632    -0.84250
O557        O  0.91916825  0.31705268  0.88760253    -0.85920
O558        O  0.84920849  0.32071199  0.56573389    -0.84680
O559        O  0.90915276  0.37774007  0.63771392    -0.84270
O560        O  0.47039042  0.39038574  0.81809559    -0.85640
O561        O  0.95430283  0.28822132  0.00314208    -0.84120
O562        O  0.82932977  0.35212757  0.92856659    -0.83700
Zr563      Zr  0.92794532  0.36419126  0.97330782     2.84310
O564        O  0.50588522  0.39422586  0.53796287    -1.05680
O565        O  0.94791967  0.44820454  0.91474886    -1.06410
C566        C  0.81146059  0.39110287  0.91569965     1.09020
C567        C  0.00498298  0.28780399  0.51685785     1.08960
C568        C  0.94190409  0.33717364  0.83788030     1.11940
C569        C  0.85478689  0.33456549  0.61681926     1.09720
H570        H  0.52925588  0.37466504  0.90995916     0.35280
O571        O  0.52934098  0.40742526  0.92755662    -1.26630
H572        H  0.88052505  0.42068741  0.04119889     0.34960
O573        O  0.92535783  0.43554717  0.02683740    -1.28310
O574        O  0.73024621  0.52109930  0.51923123    -0.84080
O575        O  0.49900387  0.13277215  0.94672003    -0.85580
O576        O  0.60384654  0.44651555  0.82343406    -0.84160
O577        O  0.54771072  0.39794562  0.63942729    -0.84210
O578        O  0.93428018  0.99792167  0.62895626    -0.83920
O579        O  0.48574752  0.54106543  0.81656208    -0.83730
O580        O  0.70860742  0.14266515  0.91097859    -0.84100
O581        O  0.62633142  0.13807961  0.57400350    -0.83560
O582        O  0.66360122  0.08150278  0.83805791    -0.84620
O583        O  0.56841688  0.05921963  0.64065722    -0.83780
O584        O  0.66530086  0.47191091  0.89726169    -0.84180
O585        O  0.92779124  0.05539592  0.88334548    -0.83900
O586        O  0.89744923  0.02814050  0.05383829    -0.83580
O587        O  0.63408250  0.41225733  0.58380957    -0.83960
O588        O  0.73724542  0.11637794  0.51998075    -0.84260
O589        O  0.61229926  0.17884534  0.96316037    -0.85600
Zr590      Zr  0.61345174  0.44227496  0.49594785     2.83100
Zr591      Zr  0.94574745  0.02017775  0.96937322     2.83500
Zr592      Zr  0.54221437  0.48797119  0.86310808     2.84090
Zr593      Zr  0.50091161  0.46051561  0.59527641     2.83360
Zr594      Zr  0.63168546  0.09722441  0.99065563     2.84220
O595        O  0.52690372  0.04999674  0.03522842    -1.06170
O596        O  0.62896143  0.52112650  0.92880748    -1.05670
C597        C  0.76348946  0.08296978  0.52575917     1.08990
C598        C  0.56076575  0.17936516  0.94467265     1.11610
C599        C  0.63923581  0.43689173  0.85790328     1.09170
C600        C  0.59536800  0.38757448  0.62658752     1.09530
C601        C  0.90192957  0.02026945  0.60464634     1.09110
C602        C  0.45317885  0.06392213  0.83316732     1.08660
C603        C  0.71192578  0.12801892  0.86202415     1.09090
C604        C  0.60292514  0.11735627  0.62335256     1.08600
H605        H  0.56357018  0.09946650  0.89627199     0.35280
O606        O  0.55224698  0.06515201  0.92204741    -1.27270
H607        H  0.64496305  0.02567501  0.57837021     0.35300
O608        O  0.61197025  0.01252726  0.55006623    -1.28650
C609        C  0.90472328  0.13127999  0.81878414    -0.14030
C610        C  0.93501262  0.10269158  0.79719733    -0.29210
H611        H  0.89447119  0.12516081  0.86268065     0.14990
H612        H  0.44755385  0.10778954  0.75238825     0.15570
C613        C  0.80686973  0.14273811  0.80332078    -0.14030
C614        C  0.77918484  0.16643905  0.83446903    -0.29210
H615        H  0.77418349  0.09567545  0.79102774     0.14990
H616        H  0.81044391  0.21171596  0.84994046     0.15570
C617        C  0.92526603  0.23775959  0.81412458    -0.14030
C618        C  0.92224284  0.28834383  0.79861642    -0.29210
H619        H  0.95366259  0.24056706  0.85050591     0.14990
H620        H  0.89712598  0.28953458  0.76146891     0.15570
C621        C  0.61663422  0.21626033  0.64654822    -0.14030
C622        C  0.61932548  0.16544824  0.66223662    -0.29210
H623        H  0.59050618  0.21527023  0.60932449     0.14990
H624        H  0.64578834  0.16512279  0.69881735     0.15570
C625        C  0.65458762  0.33029258  0.64234743    -0.14030
C626        C  0.60560280  0.34085466  0.65918663    -0.29210
H627        H  0.68909899  0.36174969  0.60959681     0.14990
H628        H  0.57061523  0.31221075  0.69270015     0.15570
C629        C  0.79304259  0.30562102  0.65348675    -0.14030
C630        C  0.73427853  0.29511990  0.63307240    -0.29210
H631        H  0.79881025  0.30459105  0.69748505     0.14990
H632        H  0.73195997  0.29874702  0.58865735     0.15570
C633        C  0.93044270  0.11775718  0.62943277    -0.14030
C634        C  0.88515378  0.05655273  0.63633520    -0.29210
H635        H  0.98145737  0.13330728  0.61477779     0.14990
H636        H  0.83257656  0.03859488  0.64748186     0.15570
C637        C  0.83145819  0.11300327  0.54841340    -0.14030
C638        C  0.84430325  0.14186389  0.59557157    -0.29210
H639        H  0.86871996  0.10621327  0.52957227     0.14990
H640        H  0.80368928  0.14400609  0.61492664     0.15570
C641        C  0.99091550  0.23207439  0.54894770    -0.14030
C642        C  0.96541635  0.22576899  0.59985706    -0.29210
H643        H  0.97936214  0.19175277  0.52776188     0.14990
H644        H  0.97651552  0.26766916  0.61884870     0.15570
C645        C  0.89348724  0.17820057  0.73120983    -0.10870
C646        C  0.89968194  0.17453548  0.68315959    -0.12430
C647        C  0.59379066  0.23891008  0.85793090    -0.14030
C648        C  0.57806731  0.23561717  0.91180511    -0.29210
H649        H  0.57236893  0.19576182  0.83777142     0.14990
H650        H  0.60269447  0.27629914  0.93449927     0.15570
C651        C  0.63481363  0.37795234  0.86294336    -0.14030
C652        C  0.63533298  0.34761862  0.82052461    -0.29210
H653        H  0.64460442  0.36628080  0.90349903     0.14990
H654        H  0.63104668  0.36410502  0.77957805     0.15570
C655        C  0.71613726  0.31668205  0.86069055    -0.14030
C656        C  0.75806945  0.37446502  0.87635706    -0.29210
H657        H  0.72490239  0.28025292  0.87495449     0.14990
H658        H  0.75537790  0.41306349  0.85866521     0.15570
C659        C  0.66451696  0.28407330  0.77276612    -0.10870
C660        C  0.67212062  0.28062523  0.72446467    -0.12430
C661        C  0.64030345  0.79282563  0.33337518    -0.00090
C662        C  0.90846706  0.66334471  0.12659593    -0.00090
C663        C  0.67116202  0.78147267  0.17035043    -0.00090
C664        C  0.87752071  0.67009836  0.29077458    -0.00090
O665        O  0.83434704  0.94157828  0.42988898    -0.84090
O666        O  0.57008714  0.83399268  0.00656403    -0.84250
O667        O  0.91413552  0.81328316  0.38778520    -0.85920
O668        O  0.84877746  0.81400018  0.05464772    -0.84680
O669        O  0.89425349  0.87402913  0.12815114    -0.84270
O670        O  0.47568589  0.89259844  0.31958225    -0.85640
O671        O  0.94687965  0.78466405  0.50718651    -0.84120
O672        O  0.82238692  0.84645408  0.42871306    -0.83700
Zr673      Zr  0.92189534  0.86038296  0.47331085     2.84310
O674        O  0.51153974  0.89787851  0.03788776    -1.05680
O675        O  0.94171762  0.94422150  0.41454880    -1.06410
C676        C  0.80502153  0.88558631  0.41494012     1.09020
C677        C  0.00603307  0.78767444  0.01631435     1.08960
C678        C  0.93639828  0.83342431  0.33795811     1.11940
C679        C  0.84576234  0.82738319  0.10430231     1.09720
H680        H  0.53033092  0.87699282  0.41175156     0.35280
O681        O  0.53033858  0.90973088  0.42923703    -1.26630
H682        H  0.87410571  0.91709810  0.54085319     0.34960
O683        O  0.91894460  0.93196740  0.52649441    -1.28310
O684        O  0.73563112  0.02687651  0.01857152    -0.84080
O685        O  0.49495516  0.63037854  0.45106869    -0.85580
O686        O  0.60949865  0.95134453  0.32600275    -0.84160
O687        O  0.55726014  0.90524037  0.13946662    -0.84210
O688        O  0.94000723  0.49999368  0.12981129    -0.83920
O689        O  0.49060219  0.04508081  0.31706486    -0.83730
O690        O  0.70364359  0.63937038  0.41167087    -0.84100
O691        O  0.63556364  0.63869488  0.06959023    -0.83560
O692        O  0.65813068  0.57884420  0.33844114    -0.84620
O693        O  0.57687519  0.56101917  0.13728477    -0.83780
O694        O  0.66734748  0.97416594  0.40163118    -0.84180
O695        O  0.92578731  0.55548617  0.38655069    -0.83900
O696        O  0.90004799  0.53015469  0.55785875    -0.83580
O697        O  0.63908457  0.91278697  0.08191685    -0.83960
O698        O  0.74160500  0.61578448  0.01419372    -0.84260
O699        O  0.60805689  0.67585056  0.46816104    -0.85600
Zr700      Zr  0.61914296  0.94636607  0.99573688     2.83100
Zr701      Zr  0.94561455  0.52111364  0.47267164     2.83500
Zr702      Zr  0.54623175  0.99141644  0.36482799     2.84090
Zr703      Zr  0.50633723  0.96441996  0.09465395     2.83360
Zr704      Zr  0.62710698  0.59331988  0.49164272     2.84220
O705        O  0.52225089  0.54613739  0.53596834    -1.06170
O706        O  0.62872537  0.02404207  0.43388426    -1.05670
C707        C  0.76612843  0.58120739  0.02220914     1.08990
C708        C  0.55657009  0.67707056  0.45066986     1.11610
C709        C  0.64161362  0.93944018  0.36211350     1.09170
C710        C  0.60332439  0.89269275  0.12642763     1.09530
C711        C  0.90783090  0.52255059  0.10555005     1.09110
C712        C  0.44880802  0.56245632  0.33445502     1.08660
C713        C  0.70668371  0.62503968  0.36250902     1.09090
C714        C  0.61309626  0.61892348  0.11952895     1.08600
H715        H  0.55895135  0.59791944  0.39810400     0.35280
O716        O  0.54756366  0.56289320  0.42306041    -1.27270
H717        H  0.64857841  0.52598942  0.07341980     0.35300
O718        O  0.61506140  0.51266420  0.04554314    -1.28650
C719        C  0.89824530  0.62742492  0.31979535    -0.14030
C720        C  0.92927506  0.59918188  0.29907755    -0.29210
H721        H  0.88725647  0.62127752  0.36358245     0.14990
H722        H  0.44501863  0.60727043  0.25379628     0.15570
C723        C  0.80114518  0.63970253  0.30304950    -0.14030
C724        C  0.77386823  0.66336128  0.33477976    -0.29210
H725        H  0.76815892  0.59284879  0.29039647     0.14990
H726        H  0.80548422  0.70832571  0.35071856     0.15570
C727        C  0.91976135  0.73407831  0.31426491    -0.14030
C728        C  0.91683270  0.78466661  0.29869893    -0.29210
H729        H  0.94821910  0.73689285  0.35062009     0.14990
H730        H  0.89173508  0.78585877  0.26154042     0.15570
C731        C  0.63136488  0.71960441  0.14306012    -0.14030
C732        C  0.63119980  0.66748110  0.15884967    -0.29210
H733        H  0.60847805  0.72014169  0.10429765     0.14990
H734        H  0.65089357  0.66357549  0.19818415     0.15570
C735        C  0.65281575  0.82652332  0.14205032    -0.14030
C736        C  0.61587991  0.84954910  0.16214787    -0.29210
H737        H  0.67125991  0.83976649  0.09976315     0.14990
H738        H  0.59127918  0.83343747  0.20214346     0.15570
C739        C  0.77831994  0.78843587  0.13208574    -0.14030
C740        C  0.74854965  0.81200010  0.16136592    -0.29210
H741        H  0.74821567  0.74288257  0.11691544     0.14990
H742        H  0.78044075  0.85897496  0.17405482     0.15570
C743        C  0.93229226  0.61881557  0.13025088    -0.14030
C744        C  0.88914190  0.55728189  0.13751771    -0.29210
H745        H  0.98389145  0.63611916  0.11593131     0.14990
H746        H  0.83621829  0.53761816  0.14871060     0.15570
C747        C  0.83293489  0.61055071  0.04700199    -0.14030
C748        C  0.84316760  0.63803730  0.09475148    -0.29210
H749        H  0.87189641  0.60597572  0.02836705     0.14990
H750        H  0.80102093  0.63830063  0.11343530     0.15570
C751        C  0.99070186  0.73215364  0.04968863    -0.14030
C752        C  0.96233145  0.72532621  0.09960520    -0.29210
H753        H  0.98302425  0.69237371  0.02964851     0.14990
H754        H  0.96963650  0.76664220  0.11726114     0.15570
C755        C  0.88872232  0.67475923  0.23128352    -0.10870
C756        C  0.89643094  0.67236852  0.18312405    -0.12430
C757        C  0.58181799  0.73697971  0.36531909    -0.14030
C758        C  0.57380908  0.73460051  0.42024166    -0.29210
H759        H  0.55456707  0.69375133  0.34515201     0.14990
H760        H  0.60523987  0.77539023  0.44206509     0.15570
C761        C  0.63229981  0.87843116  0.36858988    -0.14030
C762        C  0.62757666  0.84568085  0.32649511    -0.29210
H763        H  0.64139819  0.86580066  0.40909192     0.14990
H764        H  0.62338141  0.86276027  0.28597670     0.15570
C765        C  0.70602661  0.81057088  0.36283491    -0.14030
C766        C  0.75159222  0.86882774  0.37555187    -0.29210
H767        H  0.71228993  0.77310024  0.37867954     0.14990
H768        H  0.75076741  0.90778109  0.35620137     0.15570
C769        C  0.64648150  0.77637189  0.27779957    -0.10870
C770        C  0.65530433  0.77331968  0.22976343    -0.12430
C771        C  0.64364471  0.79602530  0.83492469    -0.00090
C772        C  0.90078677  0.66117552  0.63428712    -0.00090
C773        C  0.66944483  0.78069101  0.67192847    -0.00090
C774        C  0.88983309  0.67844025  0.79929959    -0.00090
O775        O  0.83840189  0.94497476  0.93035696    -0.84090
O776        O  0.56828278  0.83231010  0.50411365    -0.84250
O777        O  0.91722712  0.81790864  0.88942919    -0.85920
O778        O  0.84372559  0.80990812  0.55276795    -0.84680
O779        O  0.89011601  0.86950851  0.62646904    -0.84270
O780        O  0.47992990  0.89513324  0.82091011    -0.85640
O781        O  0.95286852  0.78880893  0.00435162    -0.84120
O782        O  0.82645738  0.84981069  0.93006221    -0.83700
Zr783      Zr  0.92617517  0.86463548  0.97497099     2.84310
O784        O  0.50945337  0.89566974  0.53599387    -1.05680
O785        O  0.94573353  0.94805949  0.91588755    -1.06410
C786        C  0.80909908  0.88881718  0.91574239     1.09020
C787        C  0.99978734  0.78371857  0.52060055     1.08960
C788        C  0.94007628  0.83807947  0.83983923     1.11940
C789        C  0.84117702  0.82316426  0.60258952     1.09720
H790        H  0.53361138  0.87880072  0.91352116     0.35280
O791        O  0.53334087  0.91145779  0.93093066    -1.26630
H792        H  0.87810126  0.92107093  0.04234009     0.34960
O793        O  0.92294712  0.93605067  0.02793036    -1.28310
O794        O  0.73363307  0.02494410  0.51573038    -0.84080
O795        O  0.49889735  0.63126471  0.95153959    -0.85580
O796        O  0.61464189  0.95453984  0.82847981    -0.84160
O797        O  0.55725586  0.90531066  0.63853000    -0.84210
O798        O  0.94273110  0.50396496  0.63282619    -0.83920
O799        O  0.49415574  0.04624598  0.81791235    -0.83730
O800        O  0.70717269  0.62947187  0.89776112    -0.84100
O801        O  0.62853336  0.63564718  0.57778579    -0.83560
O802        O  0.64729744  0.57548980  0.82448719    -0.84620
O803        O  0.56892733  0.55701891  0.64433343    -0.83780
O804        O  0.67130855  0.97686789  0.90471525    -0.84180
O805        O  0.93078558  0.55544228  0.88322908    -0.83900
O806        O  0.90017711  0.52724003  0.05354080    -0.83580
O807        O  0.63571013  0.90906057  0.57942508    -0.83960
O808        O  0.73438304  0.61284880  0.52288123    -0.84260
O809        O  0.61372886  0.67657667  0.96056240    -0.85600
Zr810      Zr  0.61688549  0.94445272  0.49340371     2.83100
Zr811      Zr  0.94877511  0.52026705  0.96901746     2.83500
Zr812      Zr  0.55006997  0.99345496  0.86656449     2.84090
Zr813      Zr  0.50440281  0.96212877  0.59282911     2.83360
Zr814      Zr  0.63400015  0.59478099  0.98287977     2.84220
O815        O  0.53035519  0.54761666  0.03011139    -1.06170
O816        O  0.63187813  0.02612340  0.93607350    -1.05670
C817        C  0.75996598  0.57898443  0.52959408     1.08990
C818        C  0.56066777  0.67785017  0.94830546     1.11610
C819        C  0.64616875  0.94243423  0.86498538     1.09170
C820        C  0.60223137  0.89161023  0.62509042     1.09530
C821        C  0.90877334  0.52537005  0.60964824     1.09110
C822        C  0.44819477  0.56185459  0.83300791     1.08660
C823        C  0.70208355  0.61621651  0.84661950     1.09090
C824        C  0.60584834  0.61528805  0.62732840     1.08600
H825        H  0.55954057  0.59718419  0.89304959     0.35280
O826        O  0.54953609  0.56260958  0.91813113    -1.27270
H827        H  0.64115536  0.52316392  0.58083505     0.35300
O828        O  0.60834770  0.51029569  0.55240287    -1.28650
C829        C  0.91929034  0.64064011  0.82336558    -0.14030
C830        C  0.93893727  0.60518706  0.79874839    -0.29210
H831        H  0.92356090  0.64273029  0.86752994     0.14990
H832        H  0.44291221  0.60576334  0.75228513     0.15570
C833        C  0.82276242  0.65449894  0.83094700    -0.14030
C834        C  0.76424241  0.64504960  0.81076749    -0.29210
H835        H  0.82425401  0.64773960  0.87513795     0.14990
H836        H  0.75966024  0.65047956  0.76693954     0.15570
C837        C  0.93548347  0.74548198  0.81345461    -0.14030
C838        C  0.92048734  0.78938086  0.80137304    -0.29210
H839        H  0.97479738  0.75570476  0.84282244     0.14990
H840        H  0.88183158  0.78139434  0.77214569     0.15570
C841        C  0.62698580  0.71712246  0.64808202    -0.14030
C842        C  0.62501718  0.66456981  0.66602798    -0.29210
H843        H  0.60343096  0.71640751  0.60935857     0.14990
H844        H  0.64534144  0.66153983  0.70530300     0.15570
C845        C  0.65076418  0.82489838  0.64233327    -0.14030
C846        C  0.61610821  0.85023797  0.66211397    -0.29210
H847        H  0.66652266  0.83509028  0.59935263     0.14990
H848        H  0.59448692  0.83750391  0.70322882     0.15570
C849        C  0.77376770  0.78497206  0.63075441    -0.14030
C850        C  0.74611793  0.80977547  0.66085963    -0.29210
H851        H  0.74199301  0.73936616  0.61592257     0.14990
H852        H  0.77930307  0.85690259  0.67281260     0.15570
C853        C  0.92771390  0.61880120  0.63832607    -0.14030
C854        C  0.88685970  0.55687097  0.64298438    -0.29210
H855        H  0.98038044  0.63845502  0.62573472     0.14990
H856        H  0.83319456  0.53497111  0.65265753     0.15570
C857        C  0.82645795  0.60849835  0.55458308    -0.14030
C858        C  0.83492985  0.63343933  0.60336491    -0.29210
H859        H  0.86694104  0.60695698  0.53487517     0.14990
H860        H  0.79156107  0.63093685  0.62285971     0.15570
C861        C  0.98423548  0.72987191  0.55714910    -0.14030
C862        C  0.95208690  0.72330598  0.60542520    -0.29210
H863        H  0.98383252  0.69125728  0.54054697     0.14990
H864        H  0.95226349  0.76344740  0.61875164     0.15570
C865        C  0.88440499  0.67476737  0.73933919    -0.10870
C866        C  0.88860833  0.67054704  0.69087579    -0.12430
C867        C  0.58443238  0.73969543  0.86539263    -0.14030
C868        C  0.57536311  0.73559622  0.92018238    -0.29210
H869        H  0.55768114  0.69703494  0.84424365     0.14990
H870        H  0.60534838  0.77587808  0.94303366     0.15570
C871        C  0.63692964  0.88153139  0.87121749    -0.14030
C872        C  0.63109848  0.84886245  0.82878577    -0.29210
H873        H  0.64638997  0.86853713  0.91151201     0.14990
H874        H  0.62632201  0.86604191  0.78845118     0.15570
C875        C  0.70909020  0.81318066  0.86469723    -0.14030
C876        C  0.75580972  0.87168205  0.87605510    -0.29210
H877        H  0.71415239  0.77550983  0.88199648     0.14990
H878        H  0.75556033  0.91049362  0.85561247     0.15570
C879        C  0.64998245  0.78036578  0.77931428    -0.10870
C880        C  0.65686274  0.77600153  0.73136314    -0.12430
loop_ 
_geom_bond_atom_site_label_1 
_geom_bond_atom_site_label_2 
_geom_bond_distance 
_geom_bond_site_symmetry_2 
_ccdc_geom_bond_type 
C1           C97   1.522       .  S
C1          C102   1.521       .  S
C1          C105   1.532       .  S
C1          C109   1.475       .  S
C2           C83   1.503       .  S
C2           C88   1.526       .  S
C2           C92   1.514       .  S
C2           C96   1.467       .  S
C3           C71   1.533       .  S
C3           C75   1.547       .  S
C3           C80   1.554       .  S
C3          C110   1.476       .  S
C4           C59   1.541       .  S
C4           C63   1.545       .  S
C4           C67   1.538       .  S
C4           C95   1.466       .  S
O5           C16   1.290       .  A
O5         Zr261   2.430       .  S
O6          C457   1.295       .  A
O6          Zr40   2.454   1_554  S
O7           C18   1.293       .  A
O7          Zr13   2.434       .  S
O8           C19   1.297       .  A
O8         Zr123   2.459   1_554  S
O9           C19   1.300       .  A
O9         Zr483   2.486       .  S
O10         C458   1.299       .  A
O10         Zr42   2.481   1_655  S
O11         C127   1.285       .  A
O11         Zr13   2.396       .  S
O12          C16   1.286       .  A
O12         Zr13   2.411       .  S
Zr13        O118   2.456       .  S
Zr13         O15   2.334       .  S
Zr13         O23   2.333       .  S
Zr13        O564   2.331       .  S
Zr13        O461   2.318       .  S
O14         Zr40   2.338   1_554  S
O14         Zr43   2.309       .  S
O14        Zr563   2.333   1_454  S
O15        Zr261   2.326       .  S
O15        Zr482   2.326       .  S
C16         C106   1.457       .  S
C17         O446   1.296       .  A
C17         O121   1.286       .  A
C17          C91   1.457       .  S
C18         O450   1.301       .  A
C18          C68   1.487       .  S
C19          C79   1.492       .  S
H20          O21   0.960       .  S
O21         Zr42   2.395       .  S
O21        Zr453   2.333   1_455  S
O21        Zr150   2.350       .  S
H22          O23   0.964       .  S
O23        Zr261   2.318       .  S
O23        Zr593   2.381       .  S
O24         C267   1.297       .  A
O24         Zr40   2.467   1_554  S
O25          C48   1.291   1_655  A
O25        Zr481   2.448       .  S
O26          C49   1.276       .  A
O26         Zr42   2.413       .  S
O27          C50   1.316       .  A
O27         Zr43   2.553       .  S
O28          C51   1.285       .  A
O28        Zr703   2.401   1_545  S
O29         C272   1.314       .  A
O29         Zr42   2.549   1_655  S
O30          C53   1.294       .  A
O30         Zr44   2.443       .  S
O31          C54   1.289       .  A
O31        Zr154   2.419   1_554  S
O32          C53   1.297       .  A
O32        Zr262   2.467   1_545  S
O33          C54   1.302       .  A
O33        Zr263   2.489   1_545  S
O34          C49   1.270       .  A
O34        Zr150   2.425       .  S
O35         C492   1.278       .  A
O35         Zr41   2.354       .  S
O36         C161   1.293       .  A
O36         Zr41   2.431       .  S
O37          C50   1.281       .  A
O37         Zr40   2.368   1_554  S
O38          C47   1.284       .  A
O38        Zr154   2.399   1_554  S
O39          C48   1.285       .  A
O39         Zr44   2.403       .  S
Zr40        O144   2.426       .  S
Zr40        O131   2.356       .  S
Zr40        O156   2.317       .  S
Zr40        O278   2.334   1_556  S
Zr41        O225   2.437   1_545  S
Zr41        O465   2.454       .  S
Zr41        O235   2.323   1_545  S
Zr41        O243   2.317   1_545  S
Zr41        O485   2.316       .  S
Zr41        O496   2.335       .  S
Zr42        O252   2.470       .  S
Zr42         O46   2.377       .  S
Zr42        O455   2.332   1_455  S
Zr42        O276   2.328       .  S
Zr43        O449   2.477   1_455  S
Zr43        O688   2.403   1_455  S
Zr43        O253   2.490       .  S
Zr43        O573   2.383   1_455  S
Zr43        O375   2.363       .  S
Zr43        O278   2.345       .  S
Zr44        O141   2.424       .  S
Zr44        O148   2.397       .  S
Zr44         O45   2.314       .  S
Zr44         O56   2.332       .  S
Zr44        O266   2.314       .  S
Zr44        O168   2.351       .  S
O45        Zr481   2.320   1_455  S
O45        Zr373   2.363   1_545  S
O46        Zr150   2.317       .  S
O46        Zr264   2.321       .  S
C47         O244   1.297       .  A
C47          C87   1.464       .  S
C48          C98   1.452       .  S
C49         C101   1.448       .  S
C50          C76   1.507       .  S
C51         O146   1.293       .  A
C51          C84   1.443       .  S
C52         O249   1.317       .  A
C52         O475   1.278       .  A
C52         C500   1.510       .  S
C53          C64   1.481       .  S
C54          C72   1.488       .  S
H55          O56   0.962       .  S
O56        Zr481   2.337   1_455  S
O56        Zr262   2.331   1_545  S
H57          O58   0.965       .  S
O58        Zr260   2.334   1_544  S
O58        Zr263   2.343   1_545  S
O58        Zr154   2.352   1_554  S
C59          C60   1.381       .  D
C59          H61   1.087       .  S
C60         C492   1.509       .  S
C60         H502   1.084       .  S
H62         C500   1.084       .  S
C63          C64   1.358       .  D
C63          H65   1.088       .  S
C64          H66   1.080       .  S
C67          C68   1.358       .  D
C67          H69   1.089       .  S
C68          H70   1.086       .  S
C71          C72   1.359       .  D
C71          H73   1.089       .  S
C72          H74   1.086       .  S
C75          C76   1.377       .  D
C75          H77   1.087       .  S
C76          H78   1.080       .  S
C79          C80   1.364       .  D
C79          H81   1.081       .  S
C80          H82   1.088       .  S
C83          C84   1.343       .  D
C83          H85   1.090       .  S
C84          H86   1.086       .  S
C87          C88   1.350       .  D
C87          H89   1.081       .  S
C88          H90   1.090       .  S
C91          C92   1.353       .  D
C91          H93   1.082       .  S
C92          H94   1.090       .  S
C95          C96   1.203       .  T
C97          C98   1.353       .  D
C97          H99   1.088       .  S
C98         H100   1.077       .  S
C101        C102   1.332       .  D
C101        H103   1.078       .  S
C102        H104   1.084       .  S
C105        C106   1.345       .  D
C105        H107   1.088       .  S
C106        H108   1.082       .  S
C109        C110   1.208       .  T
C111        C207   1.521       .  S
C111        C212   1.521       .  S
C111        C215   1.534       .  S
C111        C219   1.475       .  S
C112        C193   1.502       .  S
C112        C198   1.524       .  S
C112        C202   1.512       .  S
C112        C206   1.465       .  S
C113        C181   1.535       .  S
C113        C185   1.546       .  S
C113        C190   1.547       .  S
C113        C220   1.476       .  S
C114        C169   1.539       .  S
C114        C173   1.542       .  S
C114        C177   1.535       .  S
C114        C205   1.463       .  S
O115        C126   1.292       .  A
O115       Zr371   2.443       .  S
O116        C567   1.296       .  A
O116       Zr150   2.458       .  S
O117        C128   1.295       .  A
O117       Zr123   2.443       .  S
O118        C129   1.296       .  A
O119        C129   1.298       .  A
O119       Zr593   2.472       .  S
O120        C568   1.301       .  A
O120       Zr152   2.493   1_655  S
O121       Zr123   2.396   1_554  S
O122        C126   1.286       .  A
O122       Zr123   2.411       .  S
Zr123       O454   2.334   1_556  S
Zr123       O125   2.333       .  S
Zr123       O133   2.337   1_556  S
Zr123       O571   2.321       .  S
O124       Zr453   2.338   1_455  S
O124       Zr150   2.340       .  S
O124       Zr153   2.305       .  S
O125       Zr371   2.323       .  S
O125       Zr592   2.313       .  S
C126        C216   1.458       .  S
C127        O556   1.295       .  A
C127        C201   1.456       .  S
C128        O560   1.297       .  A
C128        C178   1.484       .  S
C129        C189   1.486       .  S
H130        O131   0.960       .  S
O131       Zr563   2.319   1_455  S
O131       Zr152   2.399       .  S
H132        O133   0.963       .  S
O133       Zr371   2.317   1_554  S
O133       Zr483   2.377       .  S
O134        C377   1.298       .  A
O134       Zr150   2.474       .  S
O135        C158   1.291   1_655  A
O135       Zr591   2.445       .  S
O136        C159   1.276       .  A
O136       Zr152   2.414       .  S
O137        C160   1.314       .  A
O137       Zr153   2.549       .  S
O138        C161   1.285   1_565  A
O138       Zr813   2.401       .  S
O139        C382   1.314       .  A
O139       Zr152   2.554   1_655  S
O140        C163   1.293       .  A
O140       Zr154   2.440       .  S
O141        C164   1.290       .  A
O142        C163   1.294       .  A
O142       Zr372   2.454   1_545  S
O143        C164   1.301       .  A
O143       Zr373   2.490   1_545  S
O144        C159   1.269       .  A
O145        C602   1.278       .  A
O145       Zr151   2.354       .  S
O146       Zr151   2.431   1_554  S
O147        C160   1.281       .  A
O147       Zr150   2.366       .  S
O148        C157   1.284       .  A
O149        C158   1.285       .  A
O149       Zr154   2.405       .  S
Zr150       O388   2.335       .  S
Zr151       O335   2.431   1_545  S
Zr151       O575   2.455       .  S
Zr151       O345   2.325   1_545  S
Zr151       O353   2.317   1_546  S
Zr151       O595   2.321   1_556  S
Zr151       O606   2.332       .  S
Zr152       O362   2.461       .  S
Zr152       O565   2.325   1_455  S
Zr152       O156   2.381       .  S
Zr152       O386   2.332       .  S
Zr153       O559   2.431   1_455  S
Zr153       O798   2.415   1_455  S
Zr153       O363   2.467       .  S
Zr153       O463   2.384   1_455  S
Zr153       O265   2.360       .  S
Zr153       O388   2.330       .  S
Zr154       O155   2.313   1_556  S
Zr154       O376   2.313       .  S
Zr154       O166   2.333       .  S
O155       Zr591   2.321   1_454  S
O155       Zr263   2.363   1_545  S
O156       Zr374   2.316       .  S
C157        O354   1.297       .  A
C157        C197   1.462       .  S
C158        C208   1.451       .  S
C159        C211   1.448       .  S
C160        C186   1.505       .  S
C161        C194   1.443       .  S
C162        O359   1.315       .  A
C162        O585   1.279       .  A
C162        C610   1.508       .  S
C163        C174   1.474       .  S
C164        C182   1.490       .  S
H165        O166   0.962       .  S
O166       Zr591   2.338   1_455  S
O166       Zr372   2.330   1_545  S
H167        O168   0.965       .  S
O168       Zr370   2.334   1_545  S
O168       Zr373   2.341   1_545  S
C169        C170   1.380       .  D
C169        H171   1.087       .  S
C170        C602   1.507       .  S
C170        H612   1.084       .  S
H172        C610   1.084       .  S
C173        C174   1.358       .  D
C173        H175   1.088       .  S
C174        H176   1.078       .  S
C177        C178   1.356       .  D
C177        H179   1.089       .  S
C178        H180   1.086       .  S
C181        C182   1.359       .  D
C181        H183   1.089       .  S
C182        H184   1.086       .  S
C185        C186   1.375       .  D
C185        H187   1.087       .  S
C186        H188   1.079       .  S
C189        C190   1.361       .  D
C189        H191   1.081       .  S
C190        H192   1.088       .  S
C193        C194   1.343       .  D
C193        H195   1.087       .  S
C194        H196   1.086       .  S
C197        C198   1.351       .  D
C197        H199   1.081       .  S
C198        H200   1.089       .  S
C201        C202   1.350       .  D
C201        H203   1.081       .  S
C202        H204   1.090       .  S
C205        C206   1.201       .  T
C207        C208   1.351       .  D
C207        H209   1.088       .  S
C208        H210   1.077       .  S
C211        C212   1.333       .  D
C211        H213   1.079       .  S
C212        H214   1.083       .  S
C215        C216   1.346       .  D
C215        H217   1.088       .  S
C216        H218   1.083       .  S
C219        C220   1.208       .  T
C221        C317   1.520       .  S
C221        C322   1.521       .  S
C221        C325   1.532       .  S
C221        C329   1.475       .  S
C222        C303   1.504       .  S
C222        C308   1.526       .  S
C222        C312   1.513       .  S
C222        C316   1.467       .  S
C223        C291   1.534       .  S
C223        C295   1.548       .  S
C223        C300   1.553       .  S
C223        C330   1.476       .  S
C224        C279   1.540       .  S
C224        C283   1.545       .  S
C224        C287   1.538       .  S
C224        C315   1.466       .  S
O225        C236   1.291       .  A
O226        C677   1.296       .  A
O226       Zr260   2.457   1_554  S
O227        C238   1.293       .  A
O227       Zr233   2.434       .  S
O228        C239   1.298       .  A
O228       Zr343   2.462   1_554  S
O229        C239   1.300       .  A
O229       Zr703   2.481       .  S
O230        C678   1.301       .  A
O230       Zr262   2.491   1_655  S
O231        C347   1.285       .  A
O231       Zr233   2.397       .  S
O232        C236   1.286       .  A
O232       Zr233   2.411       .  S
Zr233       O338   2.461       .  S
Zr233       O784   2.331       .  S
Zr233       O235   2.333       .  S
Zr233       O243   2.330       .  S
Zr233       O681   2.319       .  S
O234       Zr783   2.332   1_454  S
O234       Zr260   2.338   1_554  S
O234       Zr263   2.309       .  S
O235       Zr702   2.323       .  S
C236        C326   1.458       .  S
C237        O666   1.296       .  A
C237        O341   1.285       .  A
C237        C311   1.457       .  S
C238        O670   1.301       .  A
C238        C288   1.488       .  S
C239        C299   1.491       .  S
H240        O241   0.962       .  S
O241       Zr673   2.325   1_455  S
O241       Zr370   2.358       .  S
O241       Zr262   2.407       .  S
H242        O243   0.963       .  S
O243       Zr813   2.381       .  S
O244       Zr260   2.468   1_544  S
O245        C268   1.290   1_655  A
O245       Zr701   2.443       .  S
O246        C269   1.277       .  A
O246       Zr262   2.415       .  S
O247        C270   1.316       .  A
O247       Zr263   2.557       .  S
O248        C271   1.285       .  A
O248       Zr483   2.403       .  S
O249       Zr262   2.565   1_645  S
O250        C273   1.293       .  A
O250       Zr264   2.439       .  S
O251        C274   1.290       .  A
O251       Zr374   2.421   1_554  S
O252        C273   1.297       .  A
O253        C274   1.302       .  A
O254        C269   1.268       .  A
O254       Zr370   2.423       .  S
O255        C712   1.279       .  A
O255       Zr261   2.358       .  S
O256        C381   1.293       .  A
O256       Zr261   2.429       .  S
O257        C270   1.280       .  A
O257       Zr260   2.365   1_554  S
O258        C267   1.284       .  A
O258       Zr374   2.400   1_554  S
O259        C268   1.286       .  A
O259       Zr264   2.408       .  S
Zr260       O364   2.423       .  S
Zr260       O351   2.355       .  S
Zr260       O376   2.315   1_565  S
Zr261       O685   2.451       .  S
Zr261       O705   2.317       .  S
Zr261       O716   2.335       .  S
Zr262       O675   2.326   1_455  S
Zr262       O266   2.379   1_565  S
Zr263       O669   2.475   1_455  S
Zr263       O468   2.404   1_465  S
Zr263       O793   2.385   1_455  S
Zr264       O361   2.432       .  S
Zr264       O368   2.400       .  S
Zr264       O265   2.311       .  S
Zr264       O388   2.354       .  S
Zr264       O276   2.337       .  S
O265       Zr701   2.323   1_455  S
O266       Zr370   2.318   1_545  S
C267        C307   1.464       .  S
C268        C318   1.451       .  S
C269        C321   1.446       .  S
C270        C296   1.508       .  S
C271        O366   1.292       .  A
C271        C304   1.445       .  S
C272        O695   1.281       .  A
C272        C720   1.508       .  S
C273        C284   1.480       .  S
C274        C292   1.489       .  S
H275        O276   0.962       .  S
O276       Zr701   2.337   1_455  S
H277        O278   0.965       .  S
O278       Zr374   2.351   1_554  S
C279        C280   1.380       .  D
C279        H281   1.087       .  S
C280        C712   1.507       .  S
C280        H722   1.084       .  S
H282        C720   1.084       .  S
C283        C284   1.358       .  D
C283        H285   1.088       .  S
C284        H286   1.080       .  S
C287        C288   1.358       .  D
C287        H289   1.089       .  S
C288        H290   1.086       .  S
C291        C292   1.360       .  D
C291        H293   1.089       .  S
C292        H294   1.086       .  S
C295        C296   1.378       .  D
C295        H297   1.087       .  S
C296        H298   1.080       .  S
C299        C300   1.364       .  D
C299        H301   1.081       .  S
C300        H302   1.088       .  S
C303        C304   1.343       .  D
C303        H305   1.089       .  S
C304        H306   1.086       .  S
C307        C308   1.351       .  D
C307        H309   1.081       .  S
C308        H310   1.090       .  S
C311        C312   1.351       .  D
C311        H313   1.082       .  S
C312        H314   1.090       .  S
C315        C316   1.203       .  T
C317        C318   1.353       .  D
C317        H319   1.088       .  S
C318        H320   1.076       .  S
C321        C322   1.333       .  D
C321        H323   1.081       .  S
C322        H324   1.084       .  S
C325        C326   1.343       .  D
C325        H327   1.088       .  S
C326        H328   1.084       .  S
C329        C330   1.208       .  T
C331        C427   1.520       .  S
C331        C432   1.522       .  S
C331        C435   1.531       .  S
C331        C439   1.473       .  S
C332        C413   1.502       .  S
C332        C418   1.527       .  S
C332        C422   1.513       .  S
C332        C426   1.467       .  S
C333        C401   1.530       .  S
C333        C405   1.545       .  S
C333        C410   1.551       .  S
C333        C440   1.474       .  S
C334        C389   1.539       .  S
C334        C393   1.540       .  S
C334        C397   1.538       .  S
C334        C425   1.466       .  S
O335        C346   1.290       .  A
O336        C787   1.298   1_455  A
O336       Zr370   2.467       .  S
O337        C348   1.294       .  A
O337       Zr343   2.439       .  S
O338        C349   1.298       .  A
O339        C349   1.297       .  A
O339       Zr813   2.467       .  S
O340        C788   1.298       .  A
O340       Zr372   2.478   1_655  S
O341       Zr343   2.395   1_554  S
O342        C346   1.286       .  A
O342       Zr343   2.411       .  S
Zr343       O674   2.332   1_556  S
Zr343       O345   2.332       .  S
Zr343       O353   2.332   1_556  S
Zr343       O791   2.321       .  S
O344       Zr673   2.331   1_455  S
O344       Zr370   2.332       .  S
O344       Zr373   2.306       .  S
O345       Zr812   2.325       .  S
C346        C436   1.456       .  S
C347        O776   1.295       .  A
C347        C421   1.456       .  S
C348        O780   1.300       .  A
C348        C398   1.488       .  S
C349        C409   1.485       .  S
H350        O351   0.961       .  S
O351       Zr783   2.319   1_455  S
O351       Zr372   2.399       .  S
H352        O353   0.963       .  S
O353       Zr703   2.382       .  S
O354       Zr370   2.466   1_545  S
O355        C378   1.291   1_655  A
O355       Zr811   2.447       .  S
O356        C379   1.277       .  A
O356       Zr372   2.417       .  S
O357        C380   1.316       .  A
O357       Zr373   2.556       .  S
O358        C381   1.284       .  A
O358       Zr593   2.401       .  S
O359       Zr372   2.556   1_645  S
O360        C383   1.293       .  A
O360       Zr374   2.437       .  S
O361        C384   1.292       .  A
O362        C383   1.296       .  A
O363        C384   1.297       .  A
O364        C379   1.269       .  A
O365        C822   1.279       .  A
O365       Zr371   2.358       .  S
O366       Zr371   2.430   1_554  S
O367        C380   1.280       .  A
O367       Zr370   2.364       .  S
O368        C377   1.284       .  A
O369        C378   1.285       .  A
O369       Zr374   2.404       .  S
Zr371       O795   2.451       .  S
Zr371       O815   2.314   1_556  S
Zr371       O826   2.339       .  S
Zr372       O785   2.324   1_455  S
Zr372       O376   2.377   1_565  S
Zr373       O779   2.476   1_455  S
Zr373       O578   2.402   1_455  S
Zr373       O683   2.385   1_455  S
Zr374       O375   2.313   1_556  S
Zr374       O386   2.333       .  S
O375       Zr811   2.318   1_454  S
C377        C417   1.464       .  S
C378        C428   1.453       .  S
C379        C431   1.448       .  S
C380        C406   1.507       .  S
C381        C414   1.443       .  S
C382        O805   1.279       .  A
C382        C830   1.505       .  S
C383        C394   1.476       .  S
C384        C402   1.484       .  S
H385        O386   0.962       .  S
O386       Zr811   2.334   1_455  S
H387        O388   0.965       .  S
C389        C390   1.378       .  D
C389        H391   1.087       .  S
C390        C822   1.506       .  S
C390        H832   1.084       .  S
H392        C830   1.083       .  S
C393        C394   1.356       .  D
C393        H395   1.088       .  S
C394        H396   1.080       .  S
C397        C398   1.357       .  D
C397        H399   1.089       .  S
C398        H400   1.086       .  S
C401        C402   1.356       .  D
C401        H403   1.089       .  S
C402        H404   1.086       .  S
C405        C406   1.378       .  D
C405        H407   1.087       .  S
C406        H408   1.081       .  S
C409        C410   1.364       .  D
C409        H411   1.079       .  S
C410        H412   1.088       .  S
C413        C414   1.343       .  D
C413        H415   1.089       .  S
C414        H416   1.086       .  S
C417        C418   1.353       .  D
C417        H419   1.081       .  S
C418        H420   1.089       .  S
C421        C422   1.350       .  D
C421        H423   1.080       .  S
C422        H424   1.090       .  S
C425        C426   1.203       .  T
C427        C428   1.352       .  D
C427        H429   1.087       .  S
C428        H430   1.077       .  S
C431        C432   1.333       .  D
C431        H433   1.080       .  S
C432        H434   1.085       .  S
C435        C436   1.343       .  D
C435        H437   1.088       .  S
C436        H438   1.083       .  S
C439        C440   1.207       .  T
C441        C537   1.524       .  S
C441        C542   1.521       .  S
C441        C545   1.539       .  S
C441        C549   1.478       .  S
C442        C523   1.505       .  S
C442        C528   1.529       .  S
C442        C532   1.514       .  S
C442        C536   1.469       .  S
C443        C511   1.536       .  S
C443        C515   1.548       .  S
C443        C520   1.549       .  S
C443        C550   1.478       .  S
C444        C499   1.542       .  S
C444        C503   1.542       .  S
C444        C507   1.543       .  S
C444        C535   1.468       .  S
O445        C456   1.291       .  A
O445       Zr701   2.438       .  S
O446       Zr480   2.454   1_554  S
O447        C458   1.298       .  A
O447       Zr453   2.461       .  S
O448        C459   1.297       .  A
O448       Zr563   2.457   1_554  S
O449        C459   1.299       .  A
O450       Zr482   2.490       .  S
O451        C567   1.285   1_655  A
O451       Zr453   2.389       .  S
O452        C456   1.286       .  A
O452       Zr453   2.417       .  S
Zr453       O558   2.509       .  S
Zr453       O455   2.340       .  S
Zr453       O463   2.333       .  S
O454       Zr480   2.343   1_554  S
O454       Zr483   2.306       .  S
O455       Zr701   2.321       .  S
C456        C546   1.463       .  S
C457        O561   1.285   1_455  A
C457        C531   1.457   1_455  S
C458        C508   1.492       .  S
C459        C519   1.487       .  S
H460        O461   0.961       .  S
O461       Zr590   2.357       .  S
O461       Zr482   2.398       .  S
H462        O463   0.963       .  S
O463       Zr701   2.322       .  S
O464        C707   1.300       .  A
O464       Zr480   2.483   1_554  S
O465        C488   1.292       .  A
O466        C489   1.275       .  A
O466       Zr482   2.412       .  S
O467        C490   1.315       .  A
O467       Zr483   2.548       .  S
O468        C491   1.285       .  A
O469        C712   1.315       .  A
O469       Zr482   2.556       .  S
O470        C493   1.292       .  A
O470       Zr484   2.435       .  S
O471        C494   1.291       .  A
O471       Zr594   2.424   1_554  S
O472        C493   1.295       .  A
O472       Zr702   2.458   1_545  S
O473        C494   1.302       .  A
O473       Zr703   2.491   1_545  S
O474        C489   1.271       .  A
O474       Zr590   2.429       .  S
O475       Zr481   2.356       .  S
O476        C601   1.293       .  A
O476       Zr481   2.431       .  S
O477        C490   1.283       .  A
O477       Zr480   2.378   1_554  S
O478        C487   1.284       .  A
O478       Zr594   2.402   1_554  S
O479        C488   1.284       .  A
O479       Zr484   2.398       .  S
Zr480       O584   2.432       .  S
Zr480       O571   2.360       .  S
Zr480       O596   2.323       .  S
Zr480       O718   2.330   1_556  S
Zr481       O665   2.437   1_545  S
Zr481       O675   2.323   1_545  S
Zr481       O683   2.314   1_545  S
Zr482       O692   2.463       .  S
Zr482       O486   2.384       .  S
Zr482       O716   2.327       .  S
Zr483       O693   2.477       .  S
Zr483       O815   2.361       .  S
Zr483       O718   2.349       .  S
Zr484       O581   2.427       .  S
Zr484       O588   2.406       .  S
Zr484       O485   2.310       .  S
Zr484       O706   2.319       .  S
Zr484       O608   2.351       .  S
Zr484       O496   2.336       .  S
O485       Zr813   2.360   1_545  S
O486       Zr590   2.317       .  S
O486       Zr704   2.315       .  S
C487        O684   1.298       .  A
C487        C527   1.466       .  S
C488        C538   1.452       .  S
C489        C541   1.447       .  S
C490        C516   1.509       .  S
C491        O586   1.293       .  A
C491        C524   1.445       .  S
C492        O689   1.317       .  A
C493        C504   1.472       .  S
C494        C512   1.490       .  S
H495        O496   0.962       .  S
O496       Zr702   2.331   1_545  S
H497        O498   0.965       .  S
O498       Zr700   2.333   1_544  S
O498       Zr703   2.343   1_545  S
O498       Zr594   2.352   1_554  S
C499        C500   1.382       .  D
C499        H501   1.087       .  S
C503        C504   1.356       .  D
C503        H505   1.088       .  S
C504        H506   1.078       .  S
C507        C508   1.358       .  D
C507        H509   1.089       .  S
C508        H510   1.086       .  S
C511        C512   1.359       .  D
C511        H513   1.089       .  S
C512        H514   1.086       .  S
C515        C516   1.376       .  D
C515        H517   1.087       .  S
C516        H518   1.081       .  S
C519        C520   1.362       .  D
C519        H521   1.081       .  S
C520        H522   1.088       .  S
C523        C524   1.343       .  D
C523        H525   1.090       .  S
C524        H526   1.086       .  S
C527        C528   1.353       .  D
C527        H529   1.081       .  S
C528        H530   1.089       .  S
C531        C532   1.351       .  D
C531        H533   1.081       .  S
C532        H534   1.090       .  S
C535        C536   1.204       .  T
C537        C538   1.352       .  D
C537        H539   1.089       .  S
C538        H540   1.077       .  S
C541        C542   1.332       .  D
C541        H543   1.078       .  S
C542        H544   1.085       .  S
C545        C546   1.349       .  D
C545        H547   1.088       .  S
C546        H548   1.081       .  S
C549        C550   1.210       .  T
C551        C647   1.529       .  S
C551        C652   1.528       .  S
C551        C655   1.532       .  S
C551        C659   1.484       .  S
C552        C633   1.502       .  S
C552        C638   1.531       .  S
C552        C642   1.512       .  S
C552        C646   1.466       .  S
C553        C621   1.519       .  S
C553        C625   1.547       .  S
C553        C630   1.543       .  S
C553        C660   1.485       .  S
C554        C609   1.540       .  S
C554        C613   1.540       .  S
C554        C617   1.540       .  S
C554        C645   1.464       .  S
O555        C566   1.290       .  A
O555       Zr811   2.432       .  S
O556       Zr590   2.452       .  S
O557        C568   1.293       .  A
O557       Zr563   2.437       .  S
O558        C569   1.308       .  A
O559        C569   1.289       .  A
O560       Zr592   2.472       .  S
O561       Zr563   2.394   1_554  S
O562        C566   1.286       .  A
O562       Zr563   2.414       .  S
Zr563       O565   2.331       .  S
Zr563       O573   2.332   1_556  S
O564       Zr590   2.339       .  S
O564       Zr593   2.310       .  S
O565       Zr811   2.324       .  S
C566        C656   1.459       .  S
C567        C641   1.455   1_455  S
C568        C618   1.490       .  S
C569        C629   1.495       .  S
H570        O571   0.962       .  S
O571       Zr592   2.398       .  S
H572        O573   0.963       .  S
O573       Zr811   2.314   1_554  S
O574        C817   1.297       .  A
O574       Zr590   2.469       .  S
O575        C598   1.292       .  A
O576        C599   1.277       .  A
O576       Zr592   2.422       .  S
O577        C600   1.313       .  A
O577       Zr593   2.550       .  S
O578        C601   1.285   1_565  A
O579        C822   1.314       .  A
O579       Zr592   2.554       .  S
O580        C603   1.292       .  A
O580       Zr594   2.437       .  S
O581        C604   1.290       .  A
O582        C603   1.297       .  A
O582       Zr812   2.464   1_545  S
O583        C604   1.300       .  A
O583       Zr813   2.479   1_545  S
O584        C599   1.272       .  A
O585       Zr591   2.361       .  S
O586       Zr591   2.432   1_554  S
O587        C600   1.281       .  A
O587       Zr590   2.371       .  S
O588        C597   1.285       .  A
O589        C598   1.286       .  A
O589       Zr594   2.407       .  S
Zr590       O828   2.333       .  S
Zr591       O775   2.441   1_545  S
Zr591       O785   2.321   1_545  S
Zr591       O793   2.316   1_546  S
Zr592       O802   2.421       .  S
Zr592       O596   2.387       .  S
Zr592       O826   2.330       .  S
Zr593       O803   2.493       .  S
Zr593       O705   2.365       .  S
Zr593       O828   2.343       .  S
Zr594       O595   2.316   1_556  S
Zr594       O816   2.318       .  S
Zr594       O606   2.332       .  S
O595       Zr703   2.370   1_545  S
O596       Zr814   2.315       .  S
C597        O794   1.298       .  A
C597        C637   1.469       .  S
C598        C648   1.455       .  S
C599        C651   1.447       .  S
C600        C626   1.514       .  S
C601        C634   1.443       .  S
C602        O799   1.316       .  A
C603        C614   1.476       .  S
C604        C622   1.483       .  S
H605        O606   0.961       .  S
O606       Zr812   2.322   1_545  S
H607        O608   0.965       .  S
O608       Zr810   2.336   1_545  S
O608       Zr813   2.344   1_545  S
C609        C610   1.379       .  D
C609        H611   1.087       .  S
C613        C614   1.355       .  D
C613        H615   1.088       .  S
C614        H616   1.080       .  S
C617        C618   1.358       .  D
C617        H619   1.089       .  S
C618        H620   1.086       .  S
C621        C622   1.361       .  D
C621        H623   1.087       .  S
C622        H624   1.086       .  S
C625        C626   1.374       .  D
C625        H627   1.087       .  S
C626        H628   1.085       .  S
C629        C630   1.346       .  D
C629        H631   1.086       .  S
C630        H632   1.090       .  S
C633        C634   1.343       .  D
C633        H635   1.090       .  S
C634        H636   1.086       .  S
C637        C638   1.353       .  D
C637        H639   1.081       .  S
C638        H640   1.089       .  S
C641        C642   1.349       .  D
C641        H643   1.081       .  S
C642        H644   1.091       .  S
C645        C646   1.202       .  T
C647        C648   1.358       .  D
C647        H649   1.088       .  S
C648        H650   1.072       .  S
C651        C652   1.336       .  D
C651        H653   1.077       .  S
C652        H654   1.088       .  S
C655        C656   1.346       .  D
C655        H657   1.088       .  S
C656        H658   1.082       .  S
C659        C660   1.213       .  T
C661        C757   1.524       .  S
C661        C762   1.524       .  S
C661        C765   1.536       .  S
C661        C769   1.479       .  S
C662        C743   1.501       .  S
C662        C748   1.531       .  S
C662        C752   1.515       .  S
C662        C756   1.470       .  S
C663        C731   1.538       .  S
C663        C735   1.548       .  S
C663        C740   1.550       .  S
C663        C770   1.479       .  S
C664        C719   1.541       .  S
C664        C723   1.541       .  S
C664        C727   1.539       .  S
C664        C755   1.469       .  S
O665        C676   1.291       .  A
O666       Zr700   2.455   1_554  S
O667        C678   1.294       .  A
O667       Zr673   2.437       .  S
O668        C679   1.296       .  A
O668       Zr783   2.451   1_554  S
O669        C679   1.298       .  A
O670       Zr702   2.492       .  S
O671        C787   1.285       .  A
O671       Zr673   2.394       .  S
O672        C676   1.286       .  A
O672       Zr673   2.414       .  S
Zr673       O778   2.455       .  S
Zr673       O675   2.332       .  S
Zr673       O683   2.335       .  S
O674       Zr700   2.341   1_554  S
O674       Zr703   2.309       .  S
C676        C766   1.460       .  S
C677        O781   1.284   1_455  A
C677        C751   1.458   1_455  S
C678        C728   1.489       .  S
C679        C739   1.483       .  S
H680        O681   0.961       .  S
O681       Zr810   2.357       .  S
O681       Zr702   2.398       .  S
H682        O683   0.963       .  S
O684       Zr700   2.473   1_544  S
O685        C708   1.292       .  A
O686        C709   1.277       .  A
O686       Zr702   2.418       .  S
O687        C710   1.317       .  A
O687       Zr703   2.559       .  S
O688        C711   1.285       .  A
O689       Zr702   2.563   1_545  S
O690        C713   1.293       .  A
O690       Zr704   2.439       .  S
O691        C714   1.296       .  A
O691       Zr814   2.452   1_554  S
O692        C713   1.296       .  A
O693        C714   1.299       .  A
O694        C709   1.271       .  A
O694       Zr810   2.429       .  S
O695       Zr701   2.370       .  S
O696        C821   1.292       .  A
O696       Zr701   2.426       .  S
O697        C710   1.280       .  A
O697       Zr700   2.364   1_554  S
O698        C707   1.284       .  A
O698       Zr814   2.399   1_554  S
O699        C708   1.285       .  A
O699       Zr704   2.404       .  S
Zr700       O804   2.425       .  S
Zr700       O791   2.356       .  S
Zr700       O816   2.315   1_565  S
Zr702       O706   2.383   1_565  S
Zr704       O801   2.420       .  S
Zr704       O808   2.403       .  S
Zr704       O705   2.315       .  S
Zr704       O828   2.351       .  S
Zr704       O716   2.335       .  S
O706       Zr810   2.316   1_545  S
C707        C747   1.470       .  S
C708        C758   1.454       .  S
C709        C761   1.450       .  S
C710        C736   1.509       .  S
C711        O806   1.292       .  A
C711        C744   1.443       .  S
C713        C724   1.477       .  S
C714        C732   1.492       .  S
H715        O716   0.962       .  S
H717        O718   0.965       .  S
O718       Zr814   2.360   1_554  S
C719        C720   1.377       .  D
C719        H721   1.087       .  S
C723        C724   1.356       .  D
C723        H725   1.088       .  S
C724        H726   1.080       .  S
C727        C728   1.358       .  D
C727        H729   1.089       .  S
C728        H730   1.086       .  S
C731        C732   1.358       .  D
C731        H733   1.088       .  S
C732        H734   1.086       .  S
C735        C736   1.379       .  D
C735        H737   1.087       .  S
C736        H738   1.080       .  S
C739        C740   1.362       .  D
C739        H741   1.080       .  S
C740        H742   1.088       .  S
C743        C744   1.342       .  D
C743        H745   1.090       .  S
C744        H746   1.086       .  S
C747        C748   1.355       .  D
C747        H749   1.081       .  S
C748        H750   1.089       .  S
C751        C752   1.351       .  D
C751        H753   1.081       .  S
C752        H754   1.091       .  S
C755        C756   1.205       .  T
C757        C758   1.353       .  D
C757        H759   1.088       .  S
C758        H760   1.077       .  S
C761        C762   1.334       .  D
C761        H763   1.078       .  S
C762        H764   1.084       .  S
C765        C766   1.346       .  D
C765        H767   1.088       .  S
C766        H768   1.083       .  S
C769        C770   1.210       .  T
C771        C867   1.520       .  S
C771        C872   1.520       .  S
C771        C875   1.537       .  S
C771        C879   1.473       .  S
C772        C853   1.506       .  S
C772        C858   1.526       .  S
C772        C862   1.519       .  S
C772        C866   1.476       .  S
C773        C841   1.535       .  S
C773        C845   1.548       .  S
C773        C850   1.547       .  S
C773        C880   1.473       .  S
C774        C829   1.539       .  S
C774        C833   1.538       .  S
C774        C837   1.522       .  S
C774        C865   1.478       .  S
O775        C786   1.292       .  A
O776       Zr810   2.451       .  S
O777        C788   1.291       .  A
O777       Zr783   2.427       .  S
O778        C789   1.296       .  A
O779        C789   1.299       .  A
O780       Zr812   2.487       .  S
O781       Zr783   2.393   1_554  S
O782        C786   1.286       .  A
O782       Zr783   2.414       .  S
Zr783       O785   2.330       .  S
Zr783       O793   2.331   1_556  S
O784       Zr810   2.341       .  S
O784       Zr813   2.307       .  S
C786        C876   1.462       .  S
C787        C861   1.464       .  S
C788        C838   1.475       .  S
C789        C849   1.485       .  S
H790        O791   0.961       .  S
O791       Zr812   2.397       .  S
H792        O793   0.963       .  S
O794       Zr810   2.473   1_545  S
O795        C818   1.292       .  A
O796        C819   1.276       .  A
O796       Zr812   2.413       .  S
O797        C820   1.316       .  A
O797       Zr813   2.554       .  S
O798        C821   1.287       .  A
O799       Zr812   2.560   1_545  S
O800        C823   1.306       .  A
O800       Zr814   2.503       .  S
O801        C824   1.290       .  A
O802        C823   1.288       .  A
O803        C824   1.303       .  A
O804        C819   1.270       .  A
O805       Zr811   2.355       .  S
O806       Zr811   2.427   1_554  S
O807        C820   1.282       .  A
O807       Zr810   2.370       .  S
O808        C817   1.285       .  A
O809        C818   1.286       .  A
O809       Zr814   2.400       .  S
Zr812       O816   2.381   1_565  S
Zr814       O815   2.326   1_556  S
Zr814       O826   2.338       .  S
C817        C857   1.466       .  S
C818        C868   1.450       .  S
C819        C871   1.447       .  S
C820        C846   1.509       .  S
C821        C854   1.446       .  S
C823        C834   1.490       .  S
C824        C842   1.491       .  S
H825        O826   0.962       .  S
H827        O828   0.965       .  S
C829        C830   1.377       .  D
C829        H831   1.088       .  S
C833        C834   1.348       .  D
C833        H835   1.089       .  S
C834        H836   1.086       .  S
C837        C838   1.353       .  D
C837        H839   1.088       .  S
C838        H840   1.086       .  S
C841        C842   1.360       .  D
C841        H843   1.089       .  S
C842        H844   1.086       .  S
C845        C846   1.377       .  D
C845        H847   1.087       .  S
C846        H848   1.081       .  S
C849        C850   1.361       .  D
C849        H851   1.081       .  S
C850        H852   1.088       .  S
C853        C854   1.342       .  D
C853        H855   1.089       .  S
C854        H856   1.086       .  S
C857        C858   1.352       .  D
C857        H859   1.082       .  S
C858        H860   1.089       .  S
C861        C862   1.358       .  D
C861        H863   1.083       .  S
C862        H864   1.090       .  S
C865        C866   1.208       .  T
C867        C868   1.349       .  D
C867        H869   1.089       .  S
C868        H870   1.078       .  S
C871        C872   1.333       .  D
C871        H873   1.080       .  S
C872        H874   1.085       .  S
C875        C876   1.347       .  D
C875        H877   1.088       .  S
C876        H878   1.083       .  S
C879        C880   1.207       .  T
