geometry optimzed in LAMMPS
_audit_creation_date              2020-11-30 
_audit_creation_method            'lammps2cif' 
_symmetry_space_group_name_H-M    'P1' 
_symmetry_Int_Tables_number       1 
_symmetry_cell_setting            triclinic 
loop_ 
_symmetry_equiv_pos_as_xyz 
  x,y,z 
_cell_length_a                    50.6895167 
_cell_length_b                    50.34611791786936 
_cell_length_c                    57.62737357447881 
_cell_angle_alpha                 89.9581398335287 
_cell_angle_beta                  90.0187220581432 
_cell_angle_gamma                 120.47996330658584 
loop_ 
_atom_site_label 
_atom_site_type_symbol 
_atom_site_fract_x 
_atom_site_fract_y 
_atom_site_fract_z 
_atom_site_charge 
Zn1        Zn  0.33109082  0.16554474  0.03281468     1.49700
Zn2        Zn  0.33341926  0.13064141  0.98830334     1.49400
Zn3        Zn  0.29371131  0.16453700  0.98813977     1.49100
Zn4        Zn  0.36697677  0.20447736  0.98694722     1.49500
O5          O  0.33134742  0.16645779  0.99890603    -1.84100
O6          O  0.32419334  0.12470147  0.04553301    -0.74700
O7          O  0.29809564  0.10522866  0.96702841    -0.74500
O8          O  0.26896943  0.16649403  0.01506607    -0.74000
O9          O  0.32932651  0.10178587  0.01463010    -0.74700
O10         O  0.29771294  0.17202107  0.04568368    -0.74300
O11         O  0.26843682  0.12589762  0.96890448    -0.74900
O12         O  0.35391666  0.23016947  0.96762299    -0.74300
O13         O  0.37289272  0.14405176  0.97075830    -0.75000
O14         O  0.30334515  0.20122071  0.96785789    -0.74400
O15         O  0.39420312  0.19476298  0.96696041    -0.74900
O16         O  0.39378046  0.22938086  0.01389977    -0.74800
O17         O  0.37128392  0.19989308  0.04478978    -0.74600
C18         C  0.32472190  0.10192777  0.03632995     0.77200
C19         C  0.27390272  0.10534461  0.96129750     0.77700
C20         C  0.27413951  0.17085954  0.03676270     0.76600
C21         C  0.32768088  0.22528996  0.96119337     0.77000
C22         C  0.39432413  0.16986318  0.96317407     0.78200
C23         C  0.39344339  0.22382502  0.03554633     0.77200
Zn24       Zn  0.33545825  0.16785521  0.53487757     1.49700
Zn25       Zn  0.34078437  0.20690309  0.48874905     1.49400
Zn26       Zn  0.36842883  0.16215879  0.48948351     1.49100
Zn27       Zn  0.29559004  0.13401701  0.49017020     1.49500
O28         O  0.33519407  0.16783203  0.50083564    -1.84100
O29         O  0.33237148  0.20423605  0.54667006    -0.74700
O30         O  0.38008618  0.23048744  0.47000093    -0.74500
O31         O  0.39430188  0.16134153  0.51603242    -0.74000
O32         O  0.34150309  0.23346973  0.51522656    -0.74700
O33         O  0.37504434  0.17174088  0.54710973    -0.74300
O34         O  0.39742713  0.19804236  0.46876639    -0.74900
O35         O  0.30143971  0.10597154  0.46851207    -0.74300
O36         O  0.30486943  0.19965371  0.46841142    -0.75000
O37         O  0.35122371  0.12241121  0.47111846    -0.74400
O38         O  0.27127954  0.14980881  0.47343711    -0.74900
O39         O  0.27028078  0.10695146  0.51661523    -0.74800
O40         O  0.29949867  0.12786297  0.54770032    -0.74600
C41         C  0.33623658  0.22873386  0.53690145     0.77200
C42         C  0.39979448  0.22362457  0.46303009     0.77700
C43         C  0.39521561  0.16728032  0.53761003     0.76600
C44         C  0.32446733  0.10325483  0.46365025     0.77000
C45         C  0.27840520  0.17610597  0.46520519     0.78200
C46         C  0.27507361  0.10661674  0.53824177     0.77200
N47         N  0.36588534  0.49519650  0.78505295    -0.36600
N48         N  0.39714482  0.04488683  0.75215259    -0.57100
N49         N  0.37370542  0.49883160  0.71566192    -0.36500
N50         N  0.33983019  0.44914962  0.74876702    -0.57100
C51         C  0.37514536  0.01985373  0.79906077     0.27000
C52         C  0.34519584  0.47018125  0.79702998     0.27000
C53         C  0.38398087  0.02532156  0.70343746     0.27000
C54         C  0.35626244  0.47503633  0.70118633     0.27000
C55         C  0.41115274  0.06001652  0.77186154     0.35700
C56         C  0.41483958  0.06233227  0.73433967     0.35700
C57         C  0.33323322  0.43022220  0.76731467     0.35700
C58         C  0.33607966  0.43186346  0.72973820     0.35700
C59         C  0.35946356  0.01059820  0.81994470    -0.21800
C60         C  0.34046043  0.47913091  0.81864925    -0.21800
C61         C  0.37195970  0.01829834  0.68123582    -0.21800
C62         C  0.35547427  0.48680763  0.67953946    -0.21800
C63         C  0.43718537  0.08764404  0.76653912    -0.22900
C64         C  0.44003065  0.08882618  0.74281109    -0.22900
C65         C  0.32391137  0.40056520  0.75995457    -0.22900
C66         C  0.32471689  0.40139229  0.73622664    -0.22900
C67         C  0.40031461  0.04946267  0.79456807    -0.18200
C68         C  0.33576215  0.43955724  0.79077194    -0.18200
C69         C  0.34394981  0.44333319  0.70668741    -0.18200
C70         C  0.40736869  0.05511205  0.71061647    -0.18200
H71         H  0.36258536  0.02482466  0.83495005     0.14700
H72         H  0.32629972  0.46424393  0.83254302     0.14700
H73         H  0.37602009  0.03420441  0.66718237     0.14700
H74         H  0.34492466  0.47481129  0.66369850     0.14700
H75         H  0.45218830  0.10533084  0.77855421     0.13000
H76         H  0.45829956  0.10735159  0.73300640     0.13000
H77         H  0.31739421  0.38029815  0.77036423     0.13000
H78         H  0.31859259  0.38177167  0.72514927     0.13000
H79         H  0.37731743  0.49466165  0.77026366     0.26200
H80         H  0.38207163  0.49678718  0.73161475     0.26200
N81         N  0.10752688  0.10274313  0.78431183    -0.36600
N82         N  0.08960986  0.13355899  0.75108488    -0.57100
N83         N  0.11791559  0.11773646  0.71394611    -0.36500
N84         N  0.13430842  0.08505762  0.74760676    -0.57100
C85         C  0.08476073  0.10393044  0.79564652     0.27000
C86         C  0.11011049  0.07968682  0.79398793     0.27000
C87         C  0.10235538  0.12805427  0.70130098     0.27000
C88         C  0.12556435  0.10155679  0.69941635     0.27000
C89         C  0.08365880  0.14347534  0.77110875     0.35700
C90         C  0.08766946  0.15059100  0.73378386     0.35700
C91         C  0.14603659  0.07808014  0.76614593     0.35700
C92         C  0.14864040  0.08270294  0.72865233     0.35700
C93         C  0.07234653  0.08091400  0.81236689    -0.21800
C94         C  0.08848892  0.06571382  0.81139853    -0.21800
C95         C  0.10211979  0.12016240  0.67818833    -0.21800
C96         C  0.11653046  0.10336630  0.67703171    -0.21800
C97         C  0.07933263  0.16805804  0.76663501    -0.22900
C98         C  0.08085540  0.17188395  0.74291702    -0.22900
C99         C  0.16871312  0.07225155  0.75895660    -0.22900
C100        C  0.16950286  0.07399424  0.73517156    -0.22900
C101        C  0.07659126  0.12670816  0.79220103    -0.18200
C102        C  0.13337035  0.07299362  0.78873891    -0.18200
C103        C  0.14119279  0.08584749  0.70554918    -0.18200
C104        C  0.08785568  0.14394643  0.70995969    -0.18200
H105        H  0.05384010  0.07580880  0.82425467     0.14700
H106        H  0.08502558  0.04681292  0.82244911     0.14700
H107        H  0.09236502  0.12567610  0.66356353     0.14700
H108        H  0.11998932  0.09371326  0.66135263     0.14700
H109        H  0.07337246  0.18037760  0.77895651     0.13000
H110        H  0.07667562  0.18804249  0.73363859     0.13000
H111        H  0.18248231  0.06613511  0.76950818     0.13000
H112        H  0.18380701  0.06922959  0.72409705     0.13000
H113        H  0.12298742  0.11913518  0.77269393     0.26200
H114        H  0.12407735  0.12251729  0.73126521     0.26200
N115        N  0.49428851  0.39367958  0.78518339    -0.36600
N116        N  0.45324261  0.38198687  0.74697036    -0.57100
N117        N  0.50564201  0.40381695  0.71535903    -0.36500
N118        N  0.04623809  0.41450973  0.75356324    -0.57100
C119        C  0.46719598  0.37838723  0.79658055     0.27000
C120        C  0.01620005  0.39707363  0.80022810     0.27000
C121        C  0.48436860  0.40340707  0.70088450     0.27000
C122        C  0.03315511  0.42067207  0.70474202     0.27000
C123        C  0.43211234  0.37277187  0.76412579     0.35700
C124        C  0.43826561  0.37765393  0.72665984     0.35700
C125        C  0.06122369  0.41792492  0.77370043     0.35700
C126        C  0.06673609  0.42109360  0.73632115     0.35700
C127        C  0.47214483  0.37138016  0.81889552    -0.21800
C128        C  0.00307117  0.38363844  0.82128237    -0.21800
C129        C  0.49860475  0.41977299  0.68087609    -0.21800
C130        C  0.02924474  0.43138053  0.68362664    -0.21800
C131        C  0.40347706  0.36281727  0.75458860    -0.22900
C132        C  0.40726294  0.36508370  0.73090471    -0.22900
C133        C  0.09137230  0.42642144  0.76921628    -0.22900
C134        C  0.09450194  0.42722220  0.74559056    -0.22900
C135        C  0.43827818  0.37217489  0.78812776    -0.18200
C136        C  0.04802717  0.41306708  0.79604187    -0.18200
C137        C  0.06161426  0.42506634  0.71273916    -0.18200
C138        C  0.45229280  0.38713738  0.70450912    -0.18200
H139        H  0.45524208  0.35924588  0.83228343     0.14700
H140        H  0.01464962  0.38258004  0.83673683     0.14700
H141        H  0.48834637  0.42334244  0.66566396     0.14700
H142        H  0.04658772  0.44524165  0.67102261     0.14700
H143        H  0.38193918  0.35439278  0.76354597     0.13000
H144        H  0.38927719  0.35899117  0.71828742     0.13000
H145        H  0.10933140  0.43100660  0.78145475     0.13000
H146        H  0.11530720  0.43268266  0.73649375     0.13000
H147        H  0.49828107  0.40487996  0.76933530     0.26200
H148        H  0.50101980  0.39032349  0.73015020     0.26200
C149        C  0.48270151  0.16517312  0.60063345     0.02300
C150        C  0.01519546  0.18248952  0.60135175     0.02300
C151        C  0.03042591  0.17901650  0.62052736    -0.18200
C152        C  0.01439262  0.15943905  0.63928487     0.02300
C153        C  0.48185863  0.14211590  0.63832579     0.02300
C154        C  0.46665721  0.14560520  0.61928379    -0.18200
H155        H  0.44183051  0.13258278  0.61886851     0.04400
H156        H  0.05523982  0.19163907  0.62072018     0.04400
C157        C  0.18823614  0.01423898  0.60086825     0.02300
C158        C  0.17651192  0.48229415  0.60370888     0.02300
C159        C  0.16021578  0.46774965  0.62405443    -0.18200
C160        C  0.15338703  0.48367556  0.64093699     0.02300
C161        C  0.16326353  0.01532330  0.63690303     0.02300
C162        C  0.18100442  0.03002771  0.61726126    -0.18200
H163        H  0.18943437  0.05438685  0.61464274     0.04400
H164        H  0.15203827  0.44342369  0.62640025     0.04400
C165        C  0.30436575  0.32495466  0.89724517     0.02300
C166        C  0.32479377  0.31357229  0.89740317     0.02300
C167        C  0.34552729  0.32119447  0.87885390    -0.18200
C168        C  0.34676838  0.34033495  0.86057430     0.02300
C169        C  0.32669104  0.35226759  0.86085498     0.02300
C170        C  0.30596457  0.34444308  0.87919853    -0.18200
H171        H  0.29106051  0.35406358  0.87961567     0.04400
H172        H  0.36083957  0.31206862  0.87860309     0.04400
C173        C  0.33712652  0.32093306  0.59705257     0.02300
C174        C  0.31280925  0.32637497  0.60083676     0.02300
C175        C  0.31324069  0.34301998  0.62047045    -0.18200
C176        C  0.33914632  0.35837629  0.63489347     0.02300
C177        C  0.36401380  0.35316299  0.63072118     0.02300
C178        C  0.36208481  0.33396756  0.61227919    -0.18200
H179        H  0.38028943  0.32887919  0.60985241     0.04400
H180        H  0.29340447  0.34515233  0.62383227     0.04400
C181        C  0.16756919  0.48139739  0.90180576     0.02300
C182        C  0.18541066  0.01356007  0.89910256     0.02300
C183        C  0.18193109  0.02735171  0.87913993    -0.18200
C184        C  0.15966214  0.01011657  0.86227806     0.02300
C185        C  0.14018288  0.47781490  0.86592263     0.02300
C186        C  0.14460394  0.46408530  0.88560409    -0.18200
H187        H  0.12996592  0.43951518  0.88841292     0.04400
H188        H  0.19658591  0.05203969  0.87695024     0.04400
C189        C  0.48023621  0.16263629  0.90149185     0.02300
C190        C  0.01256751  0.17935148  0.89943328     0.02300
C191        C  0.02629775  0.17156951  0.88145167    -0.18200
C192        C  0.00898981  0.14757134  0.86553948     0.02300
C193        C  0.47646974  0.13143807  0.86763156     0.02300
C194        C  0.46286719  0.13900667  0.88565717    -0.18200
H195        H  0.43809452  0.12669071  0.88706747     0.04400
H196        H  0.05098936  0.18461897  0.87978584     0.04400
Zn197      Zn  0.16794455  0.33044747  0.53400460     1.49700
Zn198      Zn  0.16690663  0.36762986  0.48910354     1.49400
Zn199      Zn  0.20609417  0.33360890  0.48808534     1.49100
Zn200      Zn  0.13287700  0.29272702  0.48946369     1.49500
O201        O  0.16858383  0.33132685  0.50004178    -1.84100
O202        O  0.17369913  0.37040933  0.54678356    -0.74700
O203        O  0.20399240  0.39536267  0.46896513    -0.74500
O204        O  0.23055440  0.33085844  0.51482917    -0.74000
O205        O  0.16848663  0.39453337  0.51638299    -0.74700
O206        O  0.20256723  0.32542684  0.54611192    -0.74300
O207        O  0.23257654  0.37350807  0.46972093    -0.74900
O208        O  0.14545116  0.26684933  0.47077122    -0.74300
O209        O  0.12867719  0.35363067  0.46927184    -0.75000
O210        O  0.19574158  0.29705583  0.46707770    -0.74400
O211        O  0.10803613  0.30272702  0.46816972    -0.74900
O212        O  0.10426743  0.26723268  0.51584640    -0.74800
O213        O  0.12774673  0.29554578  0.54679721    -0.74600
C214        C  0.17293117  0.39328435  0.53808438     0.77200
C215        C  0.22833506  0.39536112  0.46330569     0.77700
C216        C  0.22607026  0.32701335  0.53665656     0.76600
C217        C  0.17095226  0.27214263  0.46237330     0.77000
C218        C  0.10816992  0.32707640  0.46202980     0.78200
C219        C  0.10493280  0.27211154  0.53761169     0.77200
Zn220      Zn  0.16298679  0.33112894  0.96757750     1.49700
Zn221      Zn  0.20145788  0.33227909  0.01248959     1.49400
Zn222      Zn  0.16380031  0.36682754  0.01366992     1.49100
Zn223      Zn  0.12765183  0.29217295  0.01210288     1.49500
O224        O  0.16392713  0.33053566  0.00150031    -1.84100
O225        O  0.19811019  0.32739151  0.95477395    -0.74700
O226        O  0.22785683  0.37018237  0.03263434    -0.74500
O227        O  0.16642404  0.39541112  0.98798918    -0.74000
O228        O  0.22591014  0.33052365  0.98556219    -0.74700
O229        O  0.16717996  0.37114414  0.95606580    -0.74300
O230        O  0.19964565  0.39220147  0.03508184    -0.74900
O231        O  0.10012519  0.30230109  0.03088662    -0.74300
O232        O  0.19093739  0.29499091  0.03176946    -0.75000
O233        O  0.12487940  0.35344117  0.03127536    -0.74400
O234        O  0.14020811  0.26673363  0.03182222    -0.74900
O235        O  0.10145873  0.26597030  0.98513440    -0.74800
O236        O  0.12336732  0.29547155  0.95451490    -0.74600
C237        C  0.22136087  0.32784726  0.96374156     0.77200
C238        C  0.22346074  0.39126104  0.04067266     0.77700
C239        C  0.16774857  0.39406976  0.96600004     0.76600
C240        C  0.10184554  0.32750041  0.03685182     0.77000
C241        C  0.16628036  0.27110188  0.03812220     0.78200
C242        C  0.10164143  0.27082471  0.96343232     0.77200
N243        N  0.00178514  0.11430530  0.28618652    -0.36600
N244        N  0.45459086  0.09727771  0.25120809    -0.57100
N245        N  0.99756018  0.10817650  0.21515154    -0.36500
N246        N  0.04523784  0.12521845  0.24971227    -0.57100
C247        C  0.47586650  0.09852763  0.29884425     0.27000
C248        C  0.02497594  0.11506952  0.29850529     0.27000
C249        C  0.47081252  0.09124553  0.20378467     0.27000
C250        C  0.01945708  0.10719939  0.20248630     0.27000
C251        C  0.44029251  0.09969061  0.27007616     0.35700
C252        C  0.43822114  0.09688148  0.23260928     0.35700
C253        C  0.06484341  0.13721740  0.26780773     0.35700
C254        C  0.06237281  0.13478223  0.23018261     0.35700
C255        C  0.48261094  0.08899984  0.31942397    -0.21800
C256        C  0.01358076  0.10039638  0.31963636    -0.21800
C257        C  0.47575255  0.07905421  0.18380951    -0.21800
C258        C  0.00650807  0.08977934  0.18265718    -0.21800
C259        C  0.41510193  0.10178637  0.26342015    -0.22900
C260        C  0.41382714  0.10005639  0.23956689    -0.22900
C261        C  0.09463838  0.15435630  0.25968088    -0.22900
C262        C  0.09298690  0.15324391  0.23588505    -0.22900
C263        C  0.44675052  0.09434487  0.29285475    -0.18200
C264        C  0.05617704  0.12962833  0.29132891    -0.18200
C265        C  0.05101787  0.12381865  0.20762568    -0.18200
C266        C  0.44262293  0.08863235  0.21020635    -0.18200
H267        H  0.46705808  0.07593950  0.33330496     0.14700
H268        H  0.02598547  0.09790337  0.33389743     0.14700
H269        H  0.45912237  0.06464319  0.17097549     0.14700
H270        H  0.01787584  0.08539668  0.16858976     0.14700
H271        H  0.39852931  0.10281503  0.27464513     0.13000
H272        H  0.39608860  0.09940445  0.22870169     0.13000
H273        H  0.11556571  0.16585757  0.26965588     0.13000
H274        H  0.11232918  0.16387332  0.22419087     0.13000
H275        H  0.00413984  0.12647580  0.27097200     0.26200
H276        H  0.00147613  0.12276468  0.22916127     0.26200
N277        N  0.40932624  0.40679820  0.28715106    -0.36600
N278        N  0.42715201  0.37686268  0.25251928    -0.57100
N279        N  0.40692409  0.40254846  0.21622559    -0.36500
N280        N  0.39070340  0.43407617  0.25077223    -0.57100
C281        C  0.42431894  0.39689886  0.30088998     0.27000
C282        C  0.40281363  0.42506987  0.30022871     0.27000
C283        C  0.42280951  0.39233408  0.20390331     0.27000
C284        C  0.40420306  0.42311940  0.20273016     0.27000
C285        C  0.43164903  0.36438176  0.27179879     0.35700
C286        C  0.42771038  0.36020759  0.23435453     0.35700
C287        C  0.37957369  0.44180985  0.26930932     0.35700
C288        C  0.37964669  0.44063082  0.23157602     0.35700
C289        C  0.42673445  0.40854565  0.32309234    -0.21800
C290        C  0.41309027  0.42604244  0.32272274    -0.21800
C291        C  0.43044376  0.40681604  0.18247555    -0.21800
C292        C  0.41830120  0.42571271  0.18154243    -0.21800
C293        C  0.43550820  0.33990829  0.26575144    -0.22900
C294        C  0.43187851  0.33656237  0.24219960    -0.22900
C295        C  0.36196443  0.45405061  0.26179778    -0.22900
C296        C  0.36181167  0.45304622  0.23797916    -0.22900
C297        C  0.43378772  0.37575377  0.29460703    -0.18200
C298        C  0.38614430  0.43927382  0.29289693    -0.18200
C299        C  0.38723489  0.43760444  0.20839957    -0.18200
C300        C  0.42863121  0.36867095  0.21082393    -0.18200
H301        H  0.43624946  0.40408122  0.33838670     0.14700
H302        H  0.41052143  0.43743969  0.33769745     0.14700
H303        H  0.44266963  0.40346569  0.16855880     0.14700
H304        H  0.41953650  0.43933877  0.16665039     0.14700
H305        H  0.44059122  0.32584946  0.27693773     0.13000
H306        H  0.43342867  0.31936908  0.23200595     0.13000
H307        H  0.35047998  0.46292479  0.27231946     0.13000
H308        H  0.35001880  0.46078678  0.22669282     0.13000
H309        H  0.40117354  0.39904083  0.27058472     0.26200
H310        H  0.39523182  0.39306392  0.23164185     0.26200
C311        C  0.32377429  0.01868000  0.39664406     0.02300
C312        C  0.31455952  0.48704875  0.39814202     0.02300
C313        C  0.32596214  0.47470727  0.38177432    -0.18200
C314        C  0.34575403  0.49279045  0.36375463     0.02300
C315        C  0.35352789  0.02410002  0.36150589     0.02300
C316        C  0.34286048  0.03656145  0.37831778    -0.18200
H317        H  0.34981518  0.06075940  0.37732809     0.04400
H318        H  0.31939640  0.45064262  0.38314683     0.04400
N319        N  0.11954287  0.99114882  0.28512072    -0.36600
N320        N  0.13996765  0.04463090  0.25496053    -0.57100
N321        N  0.11046315  0.00378103  0.21601974    -0.36500
N322        N  0.08925811  0.45051333  0.24568097    -0.57100
C323        C  0.12871863  0.01373338  0.30135382     0.27000
C324        C  0.10172250  0.46364589  0.29595737     0.27000
C325        C  0.11696999  0.03117481  0.20685543     0.27000
C326        C  0.08959301  0.48146749  0.20195267     0.27000
C327        C  0.15371244  0.05967637  0.27479427     0.35700
C328        C  0.15198359  0.06549009  0.23748225     0.35700
C329        C  0.08756493  0.42970282  0.26132998     0.35700
C330        C  0.08210543  0.43627549  0.22483185     0.35700
C331        C  0.11820450  0.99995924  0.32290293    -0.21800
C332        C  0.10008961  0.46897100  0.31935631    -0.21800
C333        C  0.09977991  0.02623949  0.18692649    -0.21800
C334        C  0.08293158  0.49503292  0.18361567    -0.21800
C335        C  0.17399496  0.09051511  0.26964510    -0.22900
C336        C  0.17411728  0.09367985  0.24606328    -0.22900
C337        C  0.07994067  0.40228036  0.25033780    -0.22900
C338        C  0.07560290  0.40612451  0.22736050    -0.22900
C339        C  0.14617971  0.04635272  0.29743114    -0.18200
C340        C  0.08823476  0.43377350  0.28562180    -0.18200
C341        C  0.07910174  0.44958890  0.20405008    -0.18200
C342        C  0.14027984  0.06047073  0.21459044    -0.18200
H343        H  0.12284092  0.01062665  0.33981660     0.14700
H344        H  0.08755588  0.45248793  0.33289878     0.14700
H345        H  0.10020203  0.04337836  0.17534952     0.14700
H346        H  0.06841636  0.48411834  0.16876985     0.14700
H347        H  0.18705685  0.10954585  0.28121193     0.13000
H348        H  0.18746752  0.11499738  0.23659530     0.13000
H349        H  0.07612420  0.38113026  0.25828525     0.13000
H350        H  0.06788909  0.38837254  0.21426604     0.13000
H351        H  0.12683466  0.99412615  0.26800116     0.26200
H352        H  0.12286323  0.00070898  0.22903391     0.26200
C353        C  0.32453912  0.01575456  0.10289639     0.02300
C354        C  0.31596771  0.48425524  0.10155381     0.02300
C355        C  0.32716670  0.47206773  0.11831391    -0.18200
C356        C  0.34704356  0.49036874  0.13615158     0.02300
C357        C  0.35481773  0.02171275  0.13794044     0.02300
C358        C  0.34316583  0.03363718  0.12142125    -0.18200
H359        H  0.34928911  0.05756172  0.12271139     0.04400
H360        H  0.32037101  0.44791249  0.11738779     0.04400
C361        C  0.16730569  0.17878599  0.40107502     0.02300
C362        C  0.18745469  0.16718189  0.40152360     0.02300
C363        C  0.18418146  0.14538428  0.38497600    -0.18200
C364        C  0.16233778  0.13582026  0.36722200     0.02300
C365        C  0.14340251  0.14926893  0.36543855     0.02300
C366        C  0.14558132  0.16968336  0.38311475    -0.18200
H367        H  0.13080706  0.17942762  0.38249257     0.04400
H368        H  0.19882177  0.13549322  0.38606881     0.04400
C369        C  0.19017949  0.17353169  0.10343407     0.02300
C370        C  0.16683970  0.18058391  0.09967290     0.02300
C371        C  0.14285142  0.17042197  0.11570047    -0.18200
C372        C  0.14184861  0.15422944  0.13581888     0.02300
C373        C  0.16540483  0.14726649  0.13985700     0.02300
C374        C  0.18945070  0.15762116  0.12371809    -0.18200
H375        H  0.20735719  0.15225079  0.12658046     0.04400
H376        H  0.12505558  0.17597458  0.11278765     0.04400
C377        C  0.48997314  0.30943617  0.39738242     0.02300
C378        C  0.02023820  0.31612850  0.39351985     0.02300
C379        C  0.03522080  0.33026034  0.37274640    -0.18200
C380        C  0.02285161  0.34240379  0.35702357     0.02300
C381        C  0.49289147  0.33725774  0.36166130     0.02300
C382        C  0.47660224  0.31970845  0.38112807    -0.18200
H383        H  0.45331971  0.31454020  0.38397348     0.04400
H384        H  0.05775424  0.33355620  0.36963951     0.04400
C385        C  0.48196694  0.31404724  0.09842680     0.02300
C386        C  0.01343875  0.33504650  0.09522357     0.02300
C387        C  0.02912083  0.35817868  0.11176588    -0.18200
C388        C  0.01441776  0.36086397  0.13144988     0.02300
C389        C  0.48336517  0.33796517  0.13576925     0.02300
C390        C  0.46759309  0.31518838  0.11887008    -0.18200
H391        H  0.44362942  0.29820431  0.12146926    -0.06200
H392        H  0.05327950  0.37445450  0.10920307     0.04400
C393        C  0.04219716  0.36164576  0.33694009    -0.06100
C394        C  0.02853707  0.35835348  0.31506859    -0.17200
C395        C  0.04213937  0.38167686  0.29831093     0.11100
C396        C  0.07301795  0.40571920  0.30113513    -0.06000
C397        C  0.08897885  0.40458773  0.32069995    -0.17200
C398        C  0.07339970  0.38523373  0.33947053     0.11200
S399        S  0.01723325  0.38099189  0.27563286    -0.32200
S400        S  0.09376511  0.39568392  0.36673642    -0.32200
H401        H  0.06879894  0.39212509  0.37988892     0.29200
H402        H  0.02875904  0.41295315  0.27590698     0.29200
H403        H  0.00545418  0.33954532  0.31207705     0.19800
H404        H  0.11286477  0.42207842  0.32284762     0.19800
C405        C  0.03285070  0.38722734  0.14739259    -0.06100
C406        C  0.06142591  0.39241200  0.15509721    -0.17200
C407        C  0.07806094  0.41450070  0.17203235     0.11100
C408        C  0.06445897  0.42935198  0.18352335    -0.06000
C409        C  0.03650125  0.42507029  0.17516345    -0.17200
C410        C  0.02226700  0.40647450  0.15583518     0.11200
S411        S  0.11615568  0.42216770  0.17847013    -0.32200
S412        S  0.49242498  0.40977434  0.14194433    -0.32200
H413        H  0.49515971  0.39882363  0.12015972     0.29200
H414        H  0.12777146  0.45265239  0.18603698     0.29200
H415        H  0.07073787  0.37889967  0.14812218     0.19800
H416        H  0.02639585  0.43732719  0.18311352     0.19800
C417        C  0.15299175  0.06756631  0.31786787    -0.06100
C418        C  0.12862857  0.06298000  0.33235833    -0.17200
C419        C  0.13402101  0.08194303  0.35152534     0.11100
C420        C  0.15999203  0.11147824  0.35135997    -0.06000
C421        C  0.18526827  0.11591687  0.33816860    -0.17200
C422        C  0.18261903  0.09253687  0.32328177     0.11200
S423        S  0.11023239  0.06716117  0.37717182    -0.32200
S424        S  0.21744792  0.09504972  0.31292160    -0.32200
H425        H  0.20396125  0.06387820  0.30656041     0.29200
H426        H  0.09010093  0.03772411  0.36805148     0.29200
H427        H  0.10578221  0.04364518  0.32962060     0.19800
H428        H  0.20726795  0.13676271  0.34036303     0.19800
C429        C  0.16461489  0.12799975  0.16002752    -0.06100
C430        C  0.15895796  0.13486856  0.18253245    -0.17200
C431        C  0.15016567  0.11328258  0.20057278     0.11100
C432        C  0.15219207  0.08649220  0.19741868    -0.06000
C433        C  0.16264625  0.08220401  0.17595724    -0.17200
C434        C  0.16675907  0.10121211  0.15697262     0.11200
S435        S  0.13365520  0.11990626  0.22601327    -0.32200
S436        S  0.17115420  0.08766774  0.12907353    -0.32200
H437        H  0.15125166  0.09490174  0.11734152     0.29200
H438        H  0.11195804  0.08875768  0.23013941     0.29200
H439        H  0.15806199  0.15564894  0.18544279     0.19800
H440        H  0.16431256  0.06179093  0.17327345     0.19800
C441        C  0.47694424  0.34843281  0.34628147    -0.06100
C442        C  0.44833387  0.32657545  0.33706981    -0.17200
C443        C  0.43279599  0.33514251  0.32153433     0.11100
C444        C  0.44745902  0.36567060  0.31304404    -0.06000
C445        C  0.47570347  0.38768813  0.32265095    -0.17200
C446        C  0.48949763  0.37979687  0.34022808     0.11200
S447        S  0.39442254  0.30610314  0.31334301    -0.32200
S448        S  0.02234207  0.41066047  0.35438888    -0.32200
H449        H  0.01877606  0.39483958  0.37533231     0.29200
H450        H  0.38405799  0.32658552  0.30822840     0.29200
H451        H  0.43785245  0.30260881  0.34218774     0.19800
H452        H  0.48651673  0.41146321  0.31695306     0.19800
C453        C  0.43913354  0.35444627  0.19287072    -0.06100
C454        C  0.46670142  0.35459092  0.19635853    -0.17200
C455        C  0.47850419  0.34376856  0.17932115     0.11100
C456        C  0.46609190  0.33835004  0.15669852    -0.06000
C457        C  0.43738446  0.33593497  0.15364444    -0.17200
C458        C  0.42299974  0.34202903  0.17188528     0.11200
S459        S  0.00848932  0.33654869  0.18774472    -0.32200
S460        S  0.38453157  0.33424704  0.16707915    -0.32200
H461        H  0.37597599  0.32987219  0.19060865     0.29200
H462        H  0.00469032  0.31710245  0.16896023     0.29200
H463        H  0.47904201  0.36282026  0.21257003     0.19800
H464        H  0.42638078  0.33012517  0.13680626     0.19800
C465        C  0.37528506  0.45241667  0.31125586    -0.06100
C466        C  0.39700689  0.47859161  0.32347429    -0.17200
C467        C  0.38845377  0.49022584  0.34222888     0.11100
C468        C  0.35703340  0.47794018  0.34722084    -0.06000
C469        C  0.33535017  0.45145842  0.33522766    -0.17200
C470        C  0.34416431  0.43814269  0.31782591     0.11200
S471        S  0.41878573  0.01906702  0.35996975    -0.32200
S472        S  0.31451337  0.40324049  0.30452981    -0.32200
H473        H  0.33299498  0.39064704  0.29927311     0.29200
H474        H  0.40111060  0.01328267  0.38015374     0.29200
H475        H  0.42105988  0.48894169  0.31917207     0.19800
H476        H  0.31123412  0.44133948  0.33920007     0.19800
C477        C  0.35828747  0.47568389  0.15307834    -0.06100
C478        C  0.33668846  0.44949190  0.16539904    -0.17200
C479        C  0.34570695  0.43587985  0.18249851     0.11100
C480        C  0.37684703  0.45008703  0.18905849    -0.06000
C481        C  0.39848146  0.47620323  0.17669314    -0.17200
C482        C  0.38974014  0.48768865  0.15785342     0.11200
S483        S  0.31637188  0.40039086  0.19532916    -0.32200
S484        S  0.41973974  0.01593087  0.13960983    -0.32200
H485        H  0.40195980  0.00810356  0.11929965     0.29200
H486        H  0.33523567  0.38791208  0.19953115     0.29200
H487        H  0.31254514  0.43939726  0.16155651     0.19800
H488        H  0.42253630  0.48680459  0.18105152     0.19800
C489        C  0.37422846  0.04489834  0.34278175    -0.06100
C490        C  0.40038009  0.07293194  0.34911153    -0.17200
C491        C  0.42294259  0.09109400  0.33279708     0.11100
C492        C  0.42086027  0.07986972  0.30995838    -0.06000
C493        C  0.39364112  0.05307404  0.30331269    -0.17200
C494        C  0.36967570  0.03683040  0.31901662     0.11200
S495        S  0.45380461  0.12805147  0.34230552    -0.32200
S496        S  0.33365273  0.50716668  0.30733388    -0.32200
H497        H  0.31554772  0.50669585  0.32598730     0.29200
H498        H  0.46099718  0.14174944  0.32018696     0.29200
H499        H  0.40368420  0.08042212  0.36703604     0.19800
H500        H  0.39087260  0.04473874  0.28563538     0.19800
C501        C  0.41669368  0.07461437  0.19326157    -0.06100
C502        C  0.42137213  0.08744000  0.17093179    -0.17200
C503        C  0.40165200  0.07114508  0.15257842     0.11100
C504        C  0.37486474  0.04229419  0.15694606    -0.06000
C505        C  0.36801264  0.03185774  0.17999869    -0.17200
C506        C  0.38918197  0.04670227  0.19786042     0.11200
S507        S  0.41409431  0.08726795  0.12393412    -0.32200
S508        S  0.38077033  0.52729980  0.22547434    -0.32200
H509        H  0.41044127  0.03234447  0.22895998     0.29200
H510        H  0.40395834  0.05904539  0.11255624     0.29200
H511        H  0.44223081  0.10898925  0.16728641     0.19800
H512        H  0.34707195  0.51049292  0.18380402     0.19800
C513        C  0.08027587  0.13455170  0.30873667    -0.06100
C514        C  0.10296618  0.16459826  0.31510351    -0.17200
C515        C  0.12522877  0.16976053  0.33195959     0.11100
C516        C  0.12284248  0.14463429  0.34495922    -0.06000
C517        C  0.09887107  0.11506770  0.33914318    -0.17200
C518        C  0.08021006  0.10958487  0.31983404     0.11200
S519        S  0.15594573  0.20892897  0.33600489    -0.32200
S520        S  0.05658293  0.07004924  0.31052842    -0.32200
H521        H  0.05475319  0.07690883  0.28713541     0.29200
H522        H  0.17804146  0.20121239  0.34233408     0.29200
H523        H  0.10382993  0.18414156  0.30645837     0.19800
H524        H  0.09349926  0.09576769  0.34979817     0.19800
C525        C  0.11657738  0.14607226  0.15266305    -0.06100
C526        C  0.09823600  0.11527073  0.15987356    -0.17200
C527        C  0.07792763  0.10753242  0.17851654     0.11100
C528        C  0.07310608  0.13038850  0.18845606    -0.06000
C529        C  0.08941835  0.16056525  0.17989751    -0.17200
C530        C  0.11180496  0.16891794  0.16283493     0.11200
S531        S  0.05983365  0.06851257  0.18930180    -0.32200
S532        S  0.13452655  0.20940927  0.15596432    -0.32200
H533        H  0.16237660  0.20980645  0.15395317     0.29200
H534        H  0.05643731  0.07544801  0.21232872     0.29200
H535        H  0.10143998  0.09752264  0.15207717     0.19800
H536        H  0.08569374  0.17811392  0.18744697     0.19800
C537        C  0.16798925  0.24777919  0.05293593    -0.06100
C538        C  0.14437872  0.21681443  0.05142536    -0.17200
C539        C  0.14447361  0.19384638  0.06512323     0.11100
C540        C  0.16865782  0.20180408  0.08097665    -0.06000
C541        C  0.19291237  0.23239240  0.08179183    -0.17200
C542        C  0.19271452  0.25542906  0.06831702     0.11200
S543        S  0.11285080  0.15495197  0.06162958    -0.32200
S544        S  0.22348619  0.29434596  0.07323774    -0.32200
H545        H  0.20414330  0.30677641  0.07456217     0.29200
H546        H  0.12700833  0.13978009  0.07141802     0.29200
H547        H  0.12559846  0.21036559  0.03944836     0.19800
H548        H  0.21121778  0.23881313  0.09422661     0.19800
C549        C  0.07660873  0.32727052  0.05020874    -0.06100
C550        C  0.07405359  0.35379870  0.04933690    -0.17200
C551        C  0.05227238  0.35637459  0.06243459     0.11100
C552        C  0.03173235  0.33148326  0.07668313    -0.06000
C553        C  0.03302987  0.30427919  0.07658424    -0.17200
C554        C  0.05540795  0.30203932  0.06394106     0.11200
S555        S  0.05321717  0.39271529  0.06054351    -0.32200
S556        S  0.05717852  0.26748557  0.06799535    -0.32200
H557        H  0.08883427  0.28348712  0.07256118     0.29200
H558        H  0.02552126  0.38400383  0.07180081     0.29200
H559        H  0.08964986  0.37319179  0.03863941     0.19800
H560        H  0.01804162  0.28543858  0.08795581     0.19800
C561        C  0.29352820  0.46270579  0.08416051    -0.06100
C562        C  0.26327351  0.45648199  0.08526577    -0.17200
C563        C  0.23988975  0.43285850  0.07205329     0.11100
C564        C  0.24681911  0.41545506  0.05638877    -0.06000
C565        C  0.27727248  0.42195213  0.05525524    -0.17200
C566        C  0.30050320  0.44516908  0.06884728     0.11200
S567        S  0.20148906  0.42473659  0.07755993    -0.32200
S568        S  0.33861005  0.45122932  0.06576330    -0.32200
H569        H  0.35437485  0.48235172  0.07250854     0.29200
H570        H  0.18878332  0.39256286  0.07824353     0.29200
H571        H  0.25747122  0.46904154  0.09751947     0.19800
H572        H  0.28322557  0.40906628  0.04345136     0.19800
C573        C  0.17142661  0.24855292  0.44696935    -0.06100
C574        C  0.14873027  0.21740965  0.45002292    -0.17200
C575        C  0.14745242  0.19407300  0.43594523     0.11100
C576        C  0.16946467  0.20175366  0.41826494    -0.06000
C577        C  0.19245396  0.23263933  0.41537084    -0.17200
C578        C  0.19343573  0.25606712  0.42916032     0.11200
S579        S  0.11674641  0.15514527  0.44131050    -0.32200
S580        S  0.22188829  0.29510285  0.42177569    -0.32200
H581        H  0.20152159  0.30629838  0.42324164     0.29200
H582        H  0.12935026  0.13953103  0.42989240     0.29200
H583        H  0.13171189  0.21108639  0.46354588     0.19800
H584        H  0.20895317  0.23874751  0.40148137     0.19800
C585        C  0.08421251  0.32376411  0.44550768    -0.06100
C586        C  0.07333886  0.29977043  0.42908461    -0.17200
C587        C  0.05139326  0.29552830  0.41248430     0.11100
C588        C  0.03921766  0.31523453  0.41259357    -0.06000
C589        C  0.04942253  0.33872550  0.42928622    -0.17200
C590        C  0.07185797  0.34338565  0.44564884     0.11200
S591        S  0.04094027  0.26515807  0.39145332    -0.32200
S592        S  0.08407103  0.37419954  0.46655324    -0.32200
H593        H  0.06373106  0.38405346  0.45979614     0.29200
H594        H  0.51743713  0.26697827  0.38000898     0.29200
H595        H  0.08270441  0.28462368  0.42870877     0.19800
H596        H  0.04067416  0.35435261  0.42879079     0.19800
C597        C  0.29264451  0.46588354  0.41608114    -0.06100
C598        C  0.30336512  0.45400826  0.43336943    -0.17200
C599        C  0.28335591  0.43199277  0.44949714     0.11100
C600        C  0.25147421  0.42087412  0.44829448    -0.06000
C601        C  0.24099781  0.43355202  0.43139882    -0.17200
C602        C  0.26093336  0.45523352  0.41513211     0.11200
S603        S  0.30018582  0.41975839  0.47149660    -0.32200
S604        S  0.24394680  0.46661921  0.39268108    -0.32200
H605        H  0.26404784  0.46891625  0.37495389     0.29200
H606        H  0.28049695  0.41822156  0.48932667     0.29200
H607        H  0.32760943  0.46193532  0.43426171     0.19800
H608        H  0.21672228  0.42530956  0.43003684     0.19800
C609        C  0.07652207  0.24764439  0.94800503    -0.06100
C610        C  0.07675753  0.25500364  0.92436478    -0.17200
C611        C  0.05512644  0.23408304  0.90857740     0.11100
C612        C  0.03281608  0.20420269  0.91607366    -0.06000
C613        C  0.03203752  0.19687665  0.93965563    -0.17200
C614        C  0.05282243  0.21824306  0.95569488     0.11200
S615        S  0.05756738  0.24716768  0.87904924    -0.32200
S616        S  0.04764631  0.20588591  0.98551431    -0.32200
H617        H  0.04530718  0.23109840  0.99334370     0.29200
H618        H  0.02670778  0.22725163  0.87332271     0.29200
H619        H  0.09400890  0.27740989  0.91793710     0.19800
H620        H  0.01543075  0.17398090  0.94563983     0.19800
C621        C  0.17316773  0.46446689  0.92028153    -0.06100
C622        C  0.15699041  0.45841526  0.94120081    -0.17200
C623        C  0.15521657  0.43611146  0.95675908     0.11100
C624        C  0.17028178  0.41960985  0.95142901    -0.06000
C625        C  0.18774329  0.42700594  0.93101803    -0.17200
C626        C  0.18942193  0.44914754  0.91548534     0.11200
S627        S  0.13118202  0.42804756  0.98191577    -0.32200
S628        S  0.21120519  0.45511409  0.88920376    -0.32200
H629        H  0.21359360  0.48287572  0.88208852     0.29200
H630        H  0.11683616  0.39581649  0.97980481     0.29200
H631        H  0.14398693  0.46965769  0.94470257     0.19800
H632        H  0.19980808  0.41496811  0.92686351     0.19800
C633        C  0.28968714  0.32037028  0.58265832    -0.06100
C634        C  0.30025692  0.33756035  0.56209162    -0.17200
C635        C  0.28025092  0.34012055  0.54677426     0.11100
C636        C  0.24847159  0.32424146  0.55156737    -0.06000
C637        C  0.23775119  0.30561311  0.57153521    -0.17200
C638        C  0.25788800  0.30348980  0.58706637     0.11200
S639        S  0.29730406  0.36655782  0.52285486    -0.32200
S640        S  0.24147780  0.27946165  0.61238303    -0.32200
H641        H  0.26726390  0.27785405  0.61904784     0.29200
H642        H  0.27977551  0.38074881  0.52619451     0.29200
H643        H  0.32464310  0.35121052  0.55885701     0.19800
H644        H  0.21344151  0.29286913  0.57527689     0.19800
C645        C  0.28218935  0.31906796  0.91611424    -0.06100
C646        C  0.29345454  0.33358929  0.93755415    -0.17200
C647        C  0.27436979  0.33670561  0.95355774     0.11100
C648        C  0.24294152  0.32443397  0.94827882    -0.06000
C649        C  0.23146964  0.30816313  0.92738608    -0.17200
C650        C  0.25057203  0.30521789  0.91141769     0.11200
S651        S  0.29234757  0.35903447  0.97923940    -0.32200
S652        S  0.23335042  0.28451155  0.88491606    -0.32200
H653        H  0.25632245  0.27780521  0.87927940     0.29200
H654        H  0.27848579  0.37709051  0.97725333     0.29200
H655        H  0.31776777  0.34469650  0.94109637     0.19800
H656        H  0.20737149  0.29785575  0.92326777     0.19800
C657        C  0.17694953  0.41869519  0.55368252    -0.06100
C658        C  0.15989727  0.43315329  0.54939140    -0.17200
C659        C  0.15997890  0.45451817  0.56507951     0.11100
C660        C  0.17837060  0.46269248  0.58525222    -0.06000
C661        C  0.19619147  0.44908182  0.58918546    -0.17200
C662        C  0.19606289  0.42766102  0.57357953     0.11200
S663        S  0.13455598  0.46893040  0.55909190    -0.32200
S664        S  0.22140089  0.41325195  0.57989236    -0.32200
H665        H  0.22935741  0.41264246  0.55658435     0.29200
H666        H  0.12641269  0.96976063  0.58229238     0.29200
H667        H  0.14508160  0.42654626  0.53433163     0.19800
H668        H  0.21018582  0.45505445  0.60468136     0.19800
C669        C  0.07903287  0.24974450  0.55257858    -0.06100
C670        C  0.06424916  0.21814457  0.54719397    -0.17200
C671        C  0.04262683  0.19572677  0.56228505     0.11100
C672        C  0.03441395  0.20483855  0.58296718    -0.06000
C673        C  0.04800951  0.23641695  0.58779447    -0.17200
C674        C  0.06981754  0.25883525  0.57285490     0.11200
S675        S  0.02785525  0.15593603  0.55479246    -0.32200
S676        S  0.08454012  0.29861215  0.58056832    -0.32200
H677        H  0.08603350  0.30877625  0.55759292     0.29200
H678        H  0.02789946  0.14594525  0.57756548     0.29200
H679        H  0.07085443  0.21067674  0.53174613     0.19800
H680        H  0.04191027  0.24366404  0.60361645     0.19800
C681        C  0.41361660  0.36455350  0.80579382    -0.06100
C682        C  0.38700229  0.33522089  0.80600309    -0.17200
C683        C  0.36444701  0.32682923  0.82321143     0.11100
C684        C  0.36930523  0.34755874  0.84153587    -0.06000
C685        C  0.39698881  0.37572050  0.84228705    -0.17200
C686        C  0.41804277  0.38523647  0.82406654     0.11200
S687        S  0.33089332  0.28887014  0.82107459    -0.32200
S688        S  0.45031836  0.42407615  0.82538061    -0.32200
H689        H  0.45401285  0.42837259  0.80123018     0.29200
H690        H  0.31226092  0.29249300  0.83718008     0.29200
H691        H  0.38378700  0.31868598  0.79266325     0.19800
H692        H  0.40212208  0.39078771  0.85708040     0.19800
C693        C  0.06871438  0.42685214  0.81628812    -0.06100
C694        C  0.08729687  0.41516757  0.82341339    -0.17200
C695        C  0.11072131  0.43102207  0.83961420     0.11100
C696        C  0.11426177  0.45812495  0.85018485    -0.06000
C697        C  0.09300528  0.46732902  0.84510537    -0.17200
C698        C  0.07113987  0.45280878  0.82773194     0.11200
S699        S  0.13668140  0.41684167  0.84414702    -0.32200
S700        S  0.04796032  0.46941984  0.82032879    -0.32200
H701        H  0.04763135  0.46460990  0.79627951     0.29200
H702        H  0.16313712  0.44577888  0.84729880     0.29200
H703        H  0.08498504  0.39484030  0.81500731     0.19800
H704        H  0.09470081  0.48725802  0.85373309     0.19800
C705        C  0.13350525  0.46591127  0.66112949    -0.06100
C706        C  0.10668454  0.43750406  0.65682555    -0.17200
C707        C  0.08481496  0.42210622  0.67419258     0.11100
C708        C  0.08767030  0.43692981  0.69571132    -0.06000
C709        C  0.11510725  0.46460274  0.70030691    -0.17200
C710        C  0.13899445  0.47734743  0.68412906     0.11200
S711        S  0.05325382  0.38416590  0.66743437    -0.32200
S712        S  0.17615801  0.00641314  0.69450689    -0.32200
H713        H  0.19284845  0.00348224  0.67620597     0.29200
H714        H  0.04710480  0.37365312  0.69051093     0.29200
H715        H  0.10227333  0.42738733  0.63966186     0.19800
H716        H  0.11832142  0.47615243  0.71680122     0.19800
C717        C  0.43217885  0.37913968  0.68370577    -0.06100
C718        C  0.43013190  0.40224278  0.67149220    -0.17200
C719        C  0.41084462  0.39501106  0.65216975     0.11100
C720        C  0.39062167  0.36371115  0.64657797    -0.06000
C721        C  0.39378307  0.34088290  0.65811758    -0.17200
C722        C  0.41499281  0.34837581  0.67596607     0.11200
S723        S  0.41185360  0.42637501  0.63624657    -0.32200
S724        S  0.41850445  0.31752835  0.68863013    -0.32200
H725        H  0.44988227  0.33553586  0.69379524     0.29200
H726        H  0.39901995  0.40972052  0.61569107     0.29200
H727        H  0.44376916  0.42604507  0.67697941     0.19800
H728        H  0.37904470  0.31684744  0.65354978     0.19800
C729        C  0.05848566  0.13144548  0.81074498    -0.06100
C730        C  0.06884237  0.13585594  0.83382024    -0.17200
C731        C  0.05181492  0.13836605  0.85196520     0.11100
C732        C  0.02564301  0.14075256  0.84696514    -0.06000
C733        C  0.01600775  0.13744875  0.82367349    -0.17200
C734        C  0.03057040  0.13035939  0.80610352     0.11200
S735        S  0.06375869  0.13618838  0.88106781    -0.32200
S736        S  0.01136120  0.11812515  0.77853684    -0.32200
H737        H  0.02079624  0.09679310  0.77379865     0.29200
H738        H  0.03412978  0.12124646  0.89061234     0.29200
H739        H  0.08964558  0.13572739  0.83791937     0.19800
H740        H  0.49639744  0.13947631  0.81907459     0.19800
C741        C  0.14284040  0.05841249  0.80717576    -0.06100
C742        C  0.14338216  0.03131630  0.80229326    -0.17200
C743        C  0.15266650  0.01754462  0.81900647     0.11100
C744        C  0.15591192  0.02723964  0.84242666    -0.06000
C745        C  0.15502596  0.05414663  0.84735917    -0.17200
C746        C  0.15064769  0.07078816  0.82987541     0.11200
S747        S  0.16263870  0.48997649  0.80874832    -0.32200
S748        S  0.15613877  0.10798986  0.83768389    -0.32200
H749        H  0.16681576  0.12151108  0.81575534     0.29200
H750        H  0.18371945  0.49545809  0.82659952     0.29200
H751        H  0.13777748  0.02143302  0.78505162     0.19800
H752        H  0.15836129  0.06274553  0.86498164     0.19800
C753        C  0.14749797  0.06940735  0.68684864    -0.06100
C754        C  0.12251758  0.04302901  0.67710389    -0.17200
C755        C  0.12664452  0.02654602  0.65935556     0.11100
C756        C  0.15663223  0.03447512  0.65286201    -0.06000
C757        C  0.18150428  0.06164520  0.66190026    -0.17200
C758        C  0.17718245  0.07964300  0.67821066     0.11200
S759        S  0.09287627  0.99701646  0.64492235    -0.32200
S760        S  0.21044457  0.11512808  0.68734100    -0.32200
H761        H  0.19480377  0.13042089  0.69366634     0.29200
H762        H  0.10732087  0.49779948  0.62390366     0.29200
H763        H  0.09949932  0.03589180  0.68285507     0.19800
H764        H  0.20459553  0.06867320  0.65642944     0.19800
C765        C  0.06740986  0.14854711  0.69376298    -0.06100
C766        C  0.07432928  0.17823787  0.68701649    -0.17200
C767        C  0.05605365  0.18245750  0.67072610     0.11100
C768        C  0.03225206  0.15660414  0.65896499    -0.06000
C769        C  0.02665025  0.12728162  0.66519702    -0.17200
C770        C  0.04191580  0.12285211  0.68351333     0.11200
S771        S  0.06407249  0.22127136  0.66603378    -0.32200
S772        S  0.02820666  0.08353481  0.69239297    -0.32200
H773        H  0.03719023  0.09046307  0.71573210     0.29200
H774        H  0.03369655  0.21290653  0.66086174     0.29200
H775        H  0.09381401  0.19822073  0.69463718     0.19800
H776        H  0.51056999  0.10725893  0.65559210     0.19800
C777        C  0.41740773  0.06932582  0.81470301    -0.06100
C778        C  0.43469768  0.06074439  0.82859820    -0.17200
C779        C  0.45326424  0.07974710  0.84661760     0.11100
C780        C  0.45545758  0.10852844  0.85036463    -0.06000
C781        C  0.43727168  0.11647957  0.83700095    -0.17200
C782        C  0.41807458  0.09711874  0.81949637     0.11200
S783        S  0.47341171  0.06599686  0.86408846    -0.32200
S784        S  0.39557502  0.10950801  0.80356566    -0.32200
H785        H  0.37168404  0.07987183  0.79767260     0.29200
H786        H  0.47500480  0.08248232  0.88422695     0.29200
H787        H  0.43387813  0.03915975  0.82522543     0.19800
H788        H  0.43843026  0.13829579  0.84003254     0.19800
C789        C  0.33245814  0.41772275  0.80968801    -0.06100
C790        C  0.30475473  0.38981892  0.81270619    -0.17200
C791        C  0.30240671  0.36754538  0.82856863     0.11100
C792        C  0.32767051  0.37410749  0.84296269    -0.06000
C793        C  0.35394822  0.40334611  0.84164172    -0.17200
C794        C  0.35745166  0.42435441  0.82435545     0.11200
S795        S  0.26660065  0.33145704  0.82947640    -0.32200
S796        S  0.39457639  0.45871203  0.82052910    -0.32200
H797        H  0.40947109  0.45369383  0.83914636     0.29200
H798        H  0.27877184  0.31332261  0.83691211     0.29200
H799        H  0.28527292  0.38481866  0.80189615     0.19800
H800        H  0.37191726  0.40977059  0.85421551     0.19800
C801        C  0.42600959  0.07837069  0.69213038    -0.06100
C802        C  0.43762712  0.06878190  0.67382632    -0.17200
C803        C  0.45343937  0.08818289  0.65523843     0.11100
C804        C  0.46276867  0.11978270  0.65661636    -0.06000
C805        C  0.45145335  0.12975910  0.67478663    -0.17200
C806        C  0.43175821  0.10906721  0.69170320     0.11200
S807        S  0.45989630  0.07045743  0.63021328    -0.32200
S808        S  0.41336670  0.12287054  0.71107339    -0.32200
H809        H  0.38693881  0.09400296  0.71475822     0.29200
H810        H  0.48149148  0.09716659  0.61854251     0.29200
H811        H  0.43314157  0.04532935  0.67343924     0.19800
H812        H  0.45674248  0.15348937  0.67508813     0.19800
C813        C  0.33922829  0.37974985  0.65341887    -0.06100
C814        C  0.35263473  0.38177278  0.67525089    -0.17200
C815        C  0.35852878  0.40564299  0.69060939     0.11100
C816        C  0.34245520  0.42163131  0.68817478    -0.06000
C817        C  0.32461080  0.41607232  0.66820436    -0.17200
C818        C  0.32630481  0.39886453  0.64975700     0.11200
S819        S  0.38769701  0.41553742  0.71237275    -0.32200
S820        S  0.31471389  0.40563887  0.62178927    -0.32200
H821        H  0.33769021  0.40389127  0.60936897     0.29200
H822        H  0.39742799  0.44712622  0.71301638     0.29200
H823        H  0.36070419  0.36637229  0.67992553     0.19800
H824        H  0.31081730  0.42671324  0.66621513     0.19800
C825        C  0.42016082  0.16866527  0.55193402    -0.06100
C826        C  0.42352721  0.14271013  0.55263876    -0.17200
C827        C  0.44483006  0.14144196  0.56742139     0.11100
C828        C  0.46423555  0.16726763  0.58142336    -0.06000
C829        C  0.46171525  0.19373902  0.57996610    -0.17200
C830        C  0.43989790  0.19467492  0.56550308     0.11200
S831        S  0.44442017  0.10534181  0.56835388    -0.32200
S832        S  0.43805955  0.22951676  0.56541286    -0.32200
H833        H  0.42866675  0.22723872  0.54217491     0.29200
H834        H  0.47184348  0.11544955  0.58044225     0.29200
H835        H  0.40844929  0.12266079  0.54230741     0.19800
H836        H  0.47597199  0.21337004  0.59093577     0.19800
C837        C  0.32010666  0.07768692  0.44844993    -0.06100
C838        C  0.30368646  0.07262069  0.42773658    -0.17200
C839        C  0.30262338  0.05200852  0.41093683     0.11100
C840        C  0.31753928  0.03510526  0.41525261    -0.06000
C841        C  0.33213249  0.03865287  0.43669737    -0.17200
C842        C  0.33357012  0.05965771  0.45328160     0.11200
S843        S  0.28326484  0.55013135  0.38409442    -0.32200
S844        S  0.35326869  0.06268107  0.48009139    -0.32200
H845        H  0.33480492  0.06973557  0.49396189     0.29200
H846        H  0.28527067  0.52638969  0.37317049     0.29200
H847        H  0.29304743  0.08616973  0.42400554     0.19800
H848        H  0.34387812  0.02608355  0.44008679     0.19800
C849        C  0.25198314  0.08066122  0.55254128    -0.06100
C850        C  0.26185259  0.06625233  0.56834760    -0.17200
C851        C  0.24116651  0.04278228  0.58318638     0.11100
C852        C  0.20966366  0.03305450  0.58212552    -0.06000
C853        C  0.19971783  0.04691914  0.56591358    -0.17200
C854        C  0.22036469  0.07027706  0.55106720     0.11200
S855        S  0.25675826  0.02746209  0.60386872    -0.32200
S856        S  0.20552779  0.08832089  0.53241625    -0.32200
H857        H  0.21249442  0.07774900  0.51203857     0.29200
H858        H  0.23687839  0.02351183  0.62224513     0.29200
H859        H  0.28600456  0.07385134  0.56953176     0.19800
H860        H  0.17581055  0.04045530  0.56557085     0.19800
C861        C  0.47082462  0.28952885  0.41694741    -0.06100
C862        C  0.46422924  0.25890282  0.41772081    -0.17200
C863        C  0.44233308  0.23728803  0.43301809     0.11100
C864        C  0.42572639  0.24601561  0.44793561    -0.06000
C865        C  0.43326257  0.27709375  0.44768711    -0.17200
C866        C  0.45562195  0.29882563  0.43266003     0.11200
S867        S  0.43527119  0.19852462  0.43114769    -0.32200
S868        S  0.46322740  0.33791096  0.43425842    -0.32200
H869        H  0.49253494  0.35219880  0.42429202     0.29200
H870        H  0.44491428  0.19883970  0.45410713     0.29200
H871        H  0.47528893  0.25130293  0.40555808     0.19800
H872        H  0.42145994  0.28462336  0.45921790     0.19800
C873        C  0.25563359  0.17894508  0.45097568    -0.06100
C874        C  0.26459271  0.19309211  0.42913675    -0.17200
C875        C  0.24299648  0.19175924  0.41327933     0.11100
C876        C  0.21162873  0.17609649  0.41935831    -0.06000
C877        C  0.20295708  0.16387979  0.44177893    -0.17200
C878        C  0.22457478  0.16529888  0.45766050     0.11200
S879        S  0.25670474  0.20873569  0.38503341    -0.32200
S880        S  0.21098795  0.14876989  0.48600308    -0.32200
H881        H  0.23827144  0.16886768  0.49779784     0.29200
H882        H  0.23197864  0.21274594  0.37938968     0.29200
H883        H  0.28836817  0.20383196  0.42389765     0.19800
H884        H  0.17900161  0.15184572  0.44659625     0.19800
C885        C  0.33542853  0.29879277  0.57918386    -0.06100
C886        C  0.31121612  0.26813405  0.58056955    -0.17200
C887        C  0.31043266  0.24503401  0.56658465     0.11100
C888        C  0.33467504  0.25243503  0.55096803    -0.06000
C889        C  0.35829796  0.28325095  0.54888434    -0.17200
C890        C  0.35896557  0.30645461  0.56273805     0.11200
S891        S  0.27772532  0.20668770  0.56936304    -0.32200
S892        S  0.39072331  0.34514842  0.55872656    -0.32200
H893        H  0.37597118  0.36048080  0.56707067     0.29200
H894        H  0.27678806  0.19872730  0.54585762     0.29200
H895        H  0.29310993  0.26190464  0.59310662     0.19800
H896        H  0.37677589  0.28920012  0.53670678     0.19800
C897        C  0.20713791  0.03393003  0.91696442    -0.06100
C898        C  0.23801852  0.04281360  0.91492030    -0.17200
C899        C  0.26029566  0.06632194  0.92874852     0.11100
C900        C  0.25148455  0.08083267  0.94565459    -0.06000
C901        C  0.22031634  0.07144140  0.94784026    -0.17200
C902        C  0.19814722  0.04835685  0.93353943     0.11200
S903        S  0.29961383  0.07825369  0.92244369    -0.32200
S904        S  0.15853134  0.53811493  0.93583170    -0.32200
H905        H  0.16245849  0.55830804  0.95410821     0.29200
H906        H  0.30988983  0.10997171  0.92351164     0.29200
H907        H  0.24503313  0.03253399  0.90157315     0.19800
H908        H  0.21335533  0.08236460  0.96067881     0.19800
C909        C  0.21303913  0.17846404  0.08517959    -0.06100
C910        C  0.20217264  0.16499137  0.06333715    -0.17200
C911        C  0.22156363  0.16350797  0.04676212     0.11100
C912        C  0.25277886  0.17488739  0.05221758    -0.06000
C913        C  0.26387692  0.18970049  0.07373648    -0.17200
C914        C  0.24462305  0.19208909  0.08997754     0.11200
S915        S  0.20424443  0.14473022  0.01979425    -0.32200
S916        S  0.26179750  0.21267073  0.11651852    -0.32200
H917        H  0.23966978  0.22094132  0.12114542     0.29200
H918        H  0.22263328  0.17142697  0.00659777     0.29200
H919        H  0.17801593  0.15430500  0.05943530     0.19800
H920        H  0.28785084  0.19950217  0.07806565     0.19800
C921        C  0.46297306  0.16915948  0.91918750    -0.06100
C922        C  0.45209082  0.14993540  0.93872463    -0.17200
C923        C  0.43086373  0.15071492  0.95394986     0.11100
C924        C  0.41958060  0.17077281  0.94931266    -0.06000
C925        C  0.43175017  0.19118893  0.93041320    -0.17200
C926        C  0.45285379  0.19026262  0.91514602     0.11200
S927        S  0.41895237  0.12643436  0.97946836    -0.32200
S928        S  0.46489964  0.21573420  0.89038723    -0.32200
H929        H  0.96835666  0.19623824  0.87479204     0.29200
H930        H  0.43691912  0.11284650  0.97565162     0.29200
H931        H  0.45964933  0.13357996  0.94161061     0.19800
H932        H  0.42354848  0.20688534  0.92677051     0.19800
C933        C  0.31995001  0.07552785  0.05146759    -0.06100
C934        C  0.30708524  0.07272670  0.07363869    -0.17200
C935        C  0.30505196  0.05094125  0.08980728     0.11100
C936        C  0.31729278  0.03194908  0.08440483    -0.06000
C937        C  0.32810405  0.03303178  0.06179085    -0.17200
C938        C  0.32890245  0.05390981  0.04519179     0.11200
S939        S  0.28711745  0.04897483  0.11730415    -0.32200
S940        S  0.34331094  0.05270103  0.01691006    -0.32200
H941        H  0.31658377  0.04768608  0.00552914     0.29200
H942        H  0.27885452  0.01839555  0.12240642     0.29200
H943        H  0.29875210  0.08791138  0.07863711     0.19800
H944        H  0.33735036  0.01847372  0.05728659     0.19800
C945        C  0.41899306  0.24618504  0.05039124    -0.06100
C946        C  0.43323240  0.27763192  0.04479610    -0.17200
C947        C  0.45448324  0.30020825  0.05976553     0.11100
C948        C  0.46271585  0.29132207  0.08054164    -0.06000
C949        C  0.44962940  0.25990620  0.08564541    -0.17200
C950        C  0.42822450  0.23729857  0.07075980     0.11200
S951        S  0.46830534  0.33981173  0.05209288    -0.32200
S952        S  0.41411615  0.19766756  0.07865120    -0.32200
H953        H  0.41329650  0.18761293  0.05574127     0.29200
H954        H  0.46852764  0.34999231  0.07484235     0.29200
H955        H  0.42643398  0.28484172  0.02929460     0.19800
H956        H  0.45593545  0.25297425  0.10153688     0.19800
C957        C  0.32436326  0.29272633  0.91597535    -0.06100
C958        C  0.29895866  0.26287064  0.91761665    -0.17200
C959        C  0.29932165  0.24046983  0.93190004     0.11100
C960        C  0.32551951  0.24806420  0.94568610    -0.06000
C961        C  0.35052056  0.27845495  0.94455504    -0.17200
C962        C  0.35018884  0.30069453  0.93003367     0.11200
S963        S  0.26640019  0.20218890  0.93007996    -0.32200
S964        S  0.38359202  0.33884388  0.93013349    -0.32200
H965        H  0.36850019  0.35457398  0.92342502     0.29200
H966        H  0.28392253  0.18801686  0.92657978     0.29200
H967        H  0.27924753  0.25640175  0.90664804     0.19800
H968        H  0.37062635  0.28507449  0.95509211     0.19800
Zn969      Zn  0.33109449  0.66554299  0.03281600     1.49700
Zn970      Zn  0.33342202  0.63064057  0.98830321     1.49400
Zn971      Zn  0.29371585  0.66453691  0.98814090     1.49100
Zn972      Zn  0.36698159  0.70447679  0.98695016     1.49500
O973        O  0.33135158  0.66645711  0.99890727    -1.84100
O974        O  0.32420157  0.62470245  0.04553253    -0.74700
O975        O  0.29809780  0.60522791  0.96702900    -0.74500
O976        O  0.26897569  0.66649661  0.01506749    -0.74000
O977        O  0.32933341  0.60178629  0.01462935    -0.74700
O978        O  0.29771590  0.67201644  0.04568563    -0.74300
O979        O  0.26844035  0.62589820  0.96890469    -0.74900
O980        O  0.35392187  0.73017132  0.96762810    -0.74300
O981        O  0.37289262  0.64405038  0.97075569    -0.75000
O982        O  0.30335056  0.70122019  0.96785904    -0.74400
O983        O  0.39420593  0.69476231  0.96696031    -0.74900
O984        O  0.39378472  0.72937654  0.01390483    -0.74800
O985        O  0.37128410  0.69989034  0.04479455    -0.74600
C986        C  0.32473081  0.60192929  0.03632942     0.77200
C987        C  0.27390574  0.60534497  0.96129734     0.77700
C988        C  0.27414456  0.67085892  0.03676447     0.76600
C989        C  0.32768633  0.72529089  0.96119670     0.77000
C990        C  0.39432448  0.66986164  0.96317186     0.78200
C991        C  0.39344496  0.72382143  0.03555184     0.77200
Zn992      Zn  0.33545279  0.66784958  0.53487783     1.49700
Zn993      Zn  0.34078894  0.70690242  0.48874991     1.49400
Zn994      Zn  0.36842909  0.66215596  0.48948503     1.49100
Zn995      Zn  0.29559061  0.63401533  0.49016928     1.49500
O996        O  0.33519386  0.66782890  0.50083602    -1.84100
O997        O  0.33236275  0.70422961  0.54666957    -0.74700
O998        O  0.38009298  0.73048822  0.47000535    -0.74500
O999        O  0.39429749  0.66133516  0.51603517    -0.74000
O1000       O  0.34150071  0.73346603  0.51522688    -0.74700
O1001       O  0.37503658  0.67173283  0.54711143    -0.74300
O1002       O  0.39742966  0.69804010  0.46876880    -0.74900
O1003       O  0.30144194  0.60596838  0.46851410    -0.74300
O1004       O  0.30488099  0.69965777  0.46840762    -0.75000
O1005       O  0.35122637  0.62240972  0.47111995    -0.74400
O1006       O  0.27128905  0.64981261  0.47343023    -0.74900
O1007       O  0.27027417  0.60695080  0.51661402    -0.74800
O1008       O  0.29949306  0.62785687  0.54769962    -0.74600
C1009       C  0.33622892  0.72872797  0.53690108     0.77200
C1010       C  0.39980009  0.72362410  0.46303400     0.77700
C1011       C  0.39520842  0.66727213  0.53761286     0.76600
C1012       C  0.32447013  0.60325269  0.46365223     0.77000
C1013       C  0.27841735  0.67611079  0.46519872     0.78200
C1014       C  0.27506676  0.60661375  0.53824052     0.77200
N1015       N  0.36588803  0.99519314  0.78505561    -0.36600
N1016       N  0.39713907  0.54489231  0.75215070    -0.57100
N1017       N  0.37370890  0.99882482  0.71566538    -0.36500
N1018       N  0.33983050  0.94914490  0.74877126    -0.57100
C1019       C  0.37514811  0.51985559  0.79906068     0.27000
C1020       C  0.34519391  0.97017923  0.79703142     0.27000
C1021       C  0.38397269  0.52532857  0.70343516     0.27000
C1022       C  0.35626460  0.97502976  0.70119004     0.27000
C1023       C  0.41114858  0.56002169  0.77185941     0.35700
C1024       C  0.41483055  0.56234005  0.73433728     0.35700
C1025       C  0.33323435  0.93021844  0.76731942     0.35700
C1026       C  0.33607894  0.93185776  0.72974285     0.35700
C1027       C  0.35947419  0.51059777  0.81994777    -0.21800
C1028       C  0.34045052  0.97913098  0.81864713    -0.21800
C1029       C  0.37194998  0.51830518  0.68123403    -0.21800
C1030       C  0.35548026  0.98680090  0.67954223    -0.21800
C1031       C  0.43717823  0.58765147  0.76653631    -0.22900
C1032       C  0.44002060  0.58883520  0.74280818    -0.22900
C1033       C  0.32391281  0.90056118  0.75996007    -0.22900
C1034       C  0.32471668  0.90138699  0.73623208    -0.22900
C1035       C  0.40031555  0.54946533  0.79456660    -0.18200
C1036       C  0.33576165  0.93955478  0.79077622    -0.18200
C1037       C  0.34394835  0.94332643  0.70669179    -0.18200
C1038       C  0.40735870  0.55511995  0.71061417    -0.18200
H1039       H  0.36260207  0.52482232  0.83495561     0.14700
H1040       H  0.32628401  0.96424531  0.83253929     0.14700
H1041       H  0.37600738  0.53421160  0.66718147     0.14700
H1042       H  0.34493095  0.97480420  0.66370127     0.14700
H1043       H  0.45218154  0.60533872  0.77855099     0.13000
H1044       H  0.45828751  0.60736222  0.73300326     0.13000
H1045       H  0.31739659  0.88029461  0.77037001     0.13000
H1046       H  0.31859205  0.88176590  0.72515515     0.13000
H1047       H  0.37732551  0.99465653  0.77027005     0.26200
H1048       H  0.38207243  0.99677978  0.73161921     0.26200
N1049       N  0.10752425  0.60274196  0.78431313    -0.36600
N1050       N  0.08961327  0.63356453  0.75108872    -0.57100
N1051       N  0.11790981  0.61773437  0.71394719    -0.36500
N1052       N  0.13429918  0.58505117  0.74760529    -0.57100
C1053       C  0.08476109  0.60393301  0.79564947     0.27000
C1054       C  0.11010468  0.57968305  0.79398791     0.27000
C1055       C  0.10234834  0.62805227  0.70130375     0.27000
C1056       C  0.12555557  0.60155302  0.69941646     0.27000
C1057       C  0.08366293  0.64348107  0.77111276     0.35700
C1058       C  0.08767063  0.65059514  0.73378773     0.35700
C1059       C  0.14602727  0.57807290  0.76614411     0.35700
C1060       C  0.14863213  0.58269822  0.72865073     0.35700
C1061       C  0.07234587  0.58091658  0.81236984    -0.21800
C1062       C  0.08848435  0.56571241  0.81139959    -0.21800
C1063       C  0.10210798  0.62015781  0.67819114    -0.21800
C1064       C  0.11651791  0.60336099  0.67703284    -0.21800
C1065       C  0.07933593  0.66806335  0.76663916    -0.22900
C1066       C  0.08085668  0.67188811  0.74292106    -0.22900
C1067       C  0.16870418  0.57224513  0.75895446    -0.22900
C1068       C  0.16949460  0.57398939  0.73516960    -0.22900
C1069       C  0.07659400  0.62671272  0.79220453    -0.18200
C1070       C  0.13336172  0.57298626  0.78873728    -0.18200
C1071       C  0.14118518  0.58584425  0.70554770    -0.18200
C1072       C  0.08785245  0.64394769  0.70996374    -0.18200
H1073       H  0.05384108  0.57581360  0.82425869     0.14700
H1074       H  0.08501939  0.54681051  0.82244968     0.14700
H1075       H  0.09235122  0.62567092  0.66356735     0.14700
H1076       H  0.11997383  0.59370655  0.66135334     0.14700
H1077       H  0.07337518  0.68038237  0.77896075     0.13000
H1078       H  0.07667452  0.68804500  0.73364251     0.13000
H1079       H  0.18247368  0.56612877  0.76950573     0.13000
H1080       H  0.18379930  0.56922554  0.72409512     0.13000
H1081       H  0.12298511  0.61913276  0.77269471     0.26200
H1082       H  0.12407515  0.62251701  0.73126559     0.26200
N1083       N  0.49428437  0.89367770  0.78518451    -0.36600
N1084       N  0.45323687  0.88197940  0.74697028    -0.57100
N1085       N  0.50563660  0.90381128  0.71535817    -0.36500
N1086       N  0.04623906  0.91451833  0.75356369    -0.57100
C1087       C  0.46719293  0.87839385  0.79658401     0.27000
C1088       C  0.01619686  0.89707592  0.80022734     0.27000
C1089       C  0.48436151  0.90339516  0.70088224     0.27000
C1090       C  0.03315936  0.92068427  0.70474297     0.27000
C1091       C  0.43210719  0.87276679  0.76412609     0.35700
C1092       C  0.43825951  0.87764444  0.72665956     0.35700
C1093       C  0.06122349  0.91793538  0.77370175     0.35700
C1094       C  0.06673955  0.92110648  0.73632268     0.35700
C1095       C  0.47214440  0.87140095  0.81890295    -0.21800
C1096       C  0.00306690  0.88363789  0.82128069    -0.21800
C1097       C  0.49859575  0.91975580  0.68087150    -0.21800
C1098       C  0.02925005  0.93139463  0.68362816    -0.21800
C1099       C  0.40347175  0.86281121  0.75458874    -0.22900
C1100       C  0.40725702  0.86507492  0.73090471    -0.22900
C1101       C  0.09137409  0.92643809  0.76921933    -0.22900
C1102       C  0.09450624  0.92724018  0.74559380    -0.22900
C1103       C  0.43827379  0.87217595  0.78812894    -0.18200
C1104       C  0.04802429  0.91307276  0.79604253    -0.18200
C1105       C  0.06161800  0.92507747  0.71274015    -0.18200
C1106       C  0.45228605  0.88712631  0.70450830    -0.18200
H1107       H  0.45524360  0.85927607  0.83229392     0.14700
H1108       H  0.01464474  0.88257913  0.83673538     0.14700
H1109       H  0.48833565  0.92331906  0.66565766     0.14700
H1110       H  0.04659360  0.94525628  0.67102472     0.14700
H1111       H  0.38193429  0.85438907  0.76354622     0.13000
H1112       H  0.38927109  0.85898178  0.71828748     0.13000
H1113       H  0.10933281  0.93102597  0.78145900     0.13000
H1114       H  0.11531348  0.93270437  0.73649849     0.13000
H1115       H  0.49827517  0.90486677  0.76933184     0.26200
H1116       H  0.50101615  0.89032199  0.73015143     0.26200
C1117       C  0.48270066  0.66517606  0.60063366     0.02300
C1118       C  0.01519207  0.68248812  0.60135457     0.02300
C1119       C  0.03042227  0.67901539  0.62053052    -0.18200
C1120       C  0.01438907  0.65943602  0.63928718     0.02300
C1121       C  0.48186035  0.64212590  0.63832815     0.02300
C1122       C  0.46665771  0.64561331  0.61928634    -0.18200
H1123       H  0.44183091  0.63259242  0.61887258     0.04400
H1124       H  0.05523615  0.69164004  0.62072425     0.04400
C1125       C  0.18822621  0.51423314  0.60086548     0.02300
C1126       C  0.17652090  0.98230039  0.60371114     0.02300
C1127       C  0.16021939  0.96775419  0.62405433    -0.18200
C1128       C  0.15338829  0.98367986  0.64093538     0.02300
C1129       C  0.16326141  0.51531869  0.63690492     0.02300
C1130       C  0.18099863  0.53002238  0.61726152    -0.18200
H1131       H  0.18942812  0.55438156  0.61464380     0.04400
H1132       H  0.15204031  0.94342781  0.62639953     0.04400
C1133       C  0.30436368  0.82495089  0.89724875     0.02300
C1134       C  0.32479730  0.81357516  0.89740933     0.02300
C1135       C  0.34553241  0.82120011  0.87886077    -0.18200
C1136       C  0.34676921  0.84033659  0.86057952     0.02300
C1137       C  0.32668825  0.85226459  0.86085897     0.02300
C1138       C  0.30595938  0.84443642  0.87920098    -0.18200
H1139       H  0.29105202  0.85405316  0.87961664     0.04400
H1140       H  0.36084784  0.81207799  0.87861095     0.04400
C1141       C  0.33711668  0.82092433  0.59705486     0.02300
C1142       C  0.31279943  0.82636553  0.60084128     0.02300
C1143       C  0.31323306  0.84301197  0.62047478    -0.18200
C1144       C  0.33914044  0.85836985  0.63489579     0.02300
C1145       C  0.36400803  0.85315738  0.63072122     0.02300
C1146       C  0.36207729  0.83396110  0.61227918    -0.18200
H1147       H  0.38028229  0.82887367  0.60985068     0.04400
H1148       H  0.29339718  0.84514441  0.62383791     0.04400
C1149       C  0.16756425  0.98139468  0.90180757     0.02300
C1150       C  0.18541560  0.51356260  0.89909885     0.02300
C1151       C  0.18193604  0.52735200  0.87913479    -0.18200
C1152       C  0.15966668  0.51011498  0.86227355     0.02300
C1153       C  0.14017749  0.97781622  0.86592553     0.02300
C1154       C  0.14459827  0.96408451  0.88560588    -0.18200
H1155       H  0.12995975  0.93951426  0.88841369     0.04400
H1156       H  0.19659048  0.55203981  0.87694382     0.04400
C1157       C  0.48023794  0.66263080  0.90149375     0.02300
C1158       C  0.01256584  0.67935510  0.89943228     0.02300
C1159       C  0.02629580  0.67157277  0.88145089    -0.18200
C1160       C  0.00898751  0.64757457  0.86553894     0.02300
C1161       C  0.47647171  0.63143338  0.86763321     0.02300
C1162       C  0.46286919  0.63900089  0.88565935    -0.18200
H1163       H  0.43809650  0.62668476  0.88706962     0.04400
H1164       H  0.05098749  0.68462156  0.87978540     0.04400
Zn1165     Zn  0.16794412  0.83045274  0.53400963     1.49700
Zn1166     Zn  0.16690773  0.86763335  0.48910741     1.49400
Zn1167     Zn  0.20609392  0.83361176  0.48809010     1.49100
Zn1168     Zn  0.13287710  0.79272977  0.48946851     1.49500
O1169       O  0.16858370  0.83133005  0.50004635    -1.84100
O1170       O  0.17370453  0.87041727  0.54678773    -0.74700
O1171       O  0.20399248  0.89536459  0.46896837    -0.74500
O1172       O  0.23055121  0.83085911  0.51483489    -0.74000
O1173       O  0.16848882  0.89453795  0.51638609    -0.74700
O1174       O  0.20256374  0.82542897  0.54611719    -0.74300
O1175       O  0.23257764  0.87351108  0.46972513    -0.74900
O1176       O  0.14545130  0.76685080  0.47077497    -0.74300
O1177       O  0.12868039  0.85363576  0.46927428    -0.75000
O1178       O  0.19574156  0.79705874  0.46708211    -0.74400
O1179       O  0.10803741  0.80273172  0.46817343    -0.74900
O1180       O  0.10426885  0.76723697  0.51585340    -0.74800
O1181       O  0.12774587  0.79555261  0.54680384    -0.74600
C1182       C  0.17293610  0.89329138  0.53808726     0.77200
C1183       C  0.22833499  0.89536305  0.46330877     0.77700
C1184       C  0.22606599  0.82701365  0.53666217     0.76600
C1185       C  0.17095289  0.77214528  0.46237683     0.77000
C1186       C  0.10817312  0.82708173  0.46203200     0.78200
C1187       C  0.10493315  0.77211679  0.53761864     0.77200
Zn1188     Zn  0.16298484  0.83112686  0.96757873     1.49700
Zn1189     Zn  0.20145716  0.83227765  0.01249066     1.49400
Zn1190     Zn  0.16379943  0.86682547  0.01366970     1.49100
Zn1191     Zn  0.12765172  0.79216967  0.01210362     1.49500
O1192       O  0.16392618  0.83053326  0.00150119    -1.84100
O1193       O  0.19810838  0.82739059  0.95477521    -0.74700
O1194       O  0.22785609  0.87018150  0.03263442    -0.74500
O1195       O  0.16642311  0.89540890  0.98798951    -0.74000
O1196       O  0.22590986  0.83052510  0.98556317    -0.74700
O1197       O  0.16717744  0.87114108  0.95606646    -0.74300
O1198       O  0.19964522  0.89220098  0.03508007    -0.74900
O1199       O  0.10012353  0.80229889  0.03088434    -0.74300
O1200       O  0.19093818  0.79498886  0.03177008    -0.75000
O1201       O  0.12487819  0.85343915  0.03127395    -0.74400
O1202       O  0.14020900  0.76673126  0.03182478    -0.74900
O1203       O  0.10145932  0.76596587  0.98513502    -0.74800
O1204       O  0.12336531  0.79547019  0.95451648    -0.74600
C1205       C  0.22136001  0.82784819  0.96374267     0.77200
C1206       C  0.22346046  0.89126112  0.04067116     0.77700
C1207       C  0.16774668  0.89406704  0.96600045     0.76600
C1208       C  0.10184358  0.82749829  0.03684908     0.77000
C1209       C  0.16628178  0.77109974  0.03812385     0.78200
C1210       C  0.10164065  0.77082210  0.96343334     0.77200
N1211       N  0.00179065  0.61430885  0.28618786    -0.36600
N1212       N  0.45459237  0.59727995  0.25120941    -0.57100
N1213       N  0.99756400  0.60817983  0.21515270    -0.36500
N1214       N  0.04524283  0.62522368  0.24971316    -0.57100
C1215       C  0.47586916  0.59853147  0.29884651     0.27000
C1216       C  0.02498204  0.61507353  0.29850626     0.27000
C1217       C  0.47081324  0.59125030  0.20378533     0.27000
C1218       C  0.01946069  0.60720117  0.20248810     0.27000
C1219       C  0.44029624  0.59969570  0.27007777     0.35700
C1220       C  0.43822365  0.59688689  0.23261088     0.35700
C1221       C  0.06484884  0.63722312  0.26780837     0.35700
C1222       C  0.06237727  0.63478695  0.23018323     0.35700
C1223       C  0.48261383  0.58900768  0.31942805    -0.21800
C1224       C  0.01358737  0.60039989  0.31963724    -0.21800
C1225       C  0.47575275  0.57905988  0.18380943    -0.21800
C1226       C  0.00651073  0.58977705  0.18266085    -0.21800
C1227       C  0.41510790  0.60179568  0.26342231    -0.22900
C1228       C  0.41383244  0.60006610  0.23956903    -0.22900
C1229       C  0.09464354  0.65436235  0.25968106    -0.22900
C1230       C  0.09299149  0.65324914  0.23588526    -0.22900
C1231       C  0.44675379  0.59434962  0.29285640    -0.18200
C1232       C  0.05618323  0.62963325  0.29132963    -0.18200
C1233       C  0.05102189  0.62382140  0.20762668    -0.18200
C1234       C  0.44262421  0.58863816  0.21020741    -0.18200
H1235       H  0.46706170  0.57595122  0.33331044     0.14700
H1236       H  0.02599263  0.59790670  0.33389784     0.14700
H1237       H  0.45912262  0.56465016  0.17097496     0.14700
H1238       H  0.01787791  0.58539171  0.16859449     0.14700
H1239       H  0.39853743  0.60282759  0.27464772     0.13000
H1240       H  0.39609547  0.59941788  0.22870410     0.13000
H1241       H  0.11557114  0.66586385  0.26965573     0.13000
H1242       H  0.11233363  0.66387791  0.22419091     0.13000
H1243       H  0.00414472  0.62647922  0.27097339     0.26200
H1244       H  0.00148027  0.62277008  0.22916112     0.26200
N1245       N  0.40933041  0.90680514  0.28715073    -0.36600
N1246       N  0.42714876  0.87686263  0.25252117    -0.57100
N1247       N  0.40692270  0.90254946  0.21622625    -0.36500
N1248       N  0.39070685  0.93408218  0.25077075    -0.57100
C1249       C  0.42432150  0.89690428  0.30089040     0.27000
C1250       C  0.40281947  0.92507896  0.30022750     0.27000
C1251       C  0.42280646  0.89233298  0.20390450     0.27000
C1252       C  0.40420291  0.92312027  0.20272980     0.27000
C1253       C  0.43164761  0.86438293  0.27180059     0.35700
C1254       C  0.42770525  0.86020631  0.23435665     0.35700
C1255       C  0.37957566  0.94181455  0.26930763     0.35700
C1256       C  0.37964583  0.94063133  0.23157426     0.35700
C1257       C  0.42673861  0.90855342  0.32309217    -0.21800
C1258       C  0.41309683  0.92605246  0.32272153    -0.21800
C1259       C  0.43044083  0.90681334  0.18247607    -0.21800
C1260       C  0.41830035  0.92571164  0.18154208    -0.21800
C1261       C  0.43550701  0.83990957  0.26575297    -0.22900
C1262       C  0.43187401  0.83656157  0.24220160    -0.22900
C1263       C  0.36196124  0.95404926  0.26179541    -0.22900
C1264       C  0.36180606  0.95304135  0.23797685    -0.22900
C1265       C  0.43378641  0.87575519  0.29460891    -0.18200
C1266       C  0.38614820  0.93928130  0.29289550    -0.18200
C1267       C  0.38723465  0.93760518  0.20839800    -0.18200
C1268       C  0.42862620  0.86866914  0.21082608    -0.18200
H1269       H  0.43625195  0.90408839  0.33838721     0.14700
H1270       H  0.41052870  0.93745022  0.33769615     0.14700
H1271       H  0.44266482  0.90346044  0.16855933     0.14700
H1272       H  0.41953574  0.93933680  0.16664939     0.14700
H1273       H  0.44059322  0.82585245  0.27693839     0.13000
H1274       H  0.43342389  0.81936812  0.23200792     0.13000
H1275       H  0.35047429  0.96292119  0.27231651     0.13000
H1276       H  0.35000847  0.96077612  0.22669018     0.13000
H1277       H  0.40117593  0.89904637  0.27058455     0.26200
H1278       H  0.39523010  0.89306588  0.23164284     0.26200
C1279       C  0.32378118  0.51868140  0.39664569     0.02300
C1280       C  0.31455528  0.98704805  0.39814187     0.02300
C1281       C  0.32596009  0.97470698  0.38177559    -0.18200
C1282       C  0.34575219  0.99279004  0.36375605     0.02300
C1283       C  0.35353176  0.52410130  0.36150598     0.02300
C1284       C  0.34286738  0.53656307  0.37831970    -0.18200
H1285       H  0.34982362  0.56076149  0.37733121     0.04400
H1286       H  0.31939578  0.95064279  0.38314894     0.04400
N1287       N  0.11953695  0.49114148  0.28512384    -0.36600
N1288       N  0.13995737  0.54462541  0.25496665    -0.57100
N1289       N  0.11045764  0.50377764  0.21602357    -0.36500
N1290       N  0.08925858  0.95051852  0.24568028    -0.57100
C1291       C  0.12870855  0.51372418  0.30135817     0.27000
C1292       C  0.10172830  0.96365470  0.29595621     0.27000
C1293       C  0.11696504  0.53117180  0.20685966     0.27000
C1294       C  0.08959620  0.98147046  0.20195037     0.27000
C1295       C  0.15370381  0.55966889  0.27480081     0.35700
C1296       C  0.15197573  0.56548514  0.23748868     0.35700
C1297       C  0.08756508  0.92970878  0.26133023     0.35700
C1298       C  0.08210650  0.93627950  0.22483157     0.35700
C1299       C  0.11819110  0.49994745  0.32290607    -0.21800
C1300       C  0.10009997  0.96898270  0.31935526    -0.21800
C1301       C  0.09977743  0.52623716  0.18692940    -0.21800
C1302       C  0.08293308  0.99503517  0.18361384    -0.21800
C1303       C  0.17398934  0.59050710  0.26965227    -0.22900
C1304       C  0.17411171  0.59367325  0.24607049    -0.22900
C1305       C  0.07994094  0.90228574  0.25033908    -0.22900
C1306       C  0.07560366  0.90612864  0.22736147    -0.22900
C1307       C  0.14617092  0.54634388  0.29743748    -0.18200
C1308       C  0.08823641  0.93378117  0.28562196    -0.18200
C1309       C  0.07910394  0.94959188  0.20404889    -0.18200
C1310       C  0.14027457  0.56046736  0.21459583    -0.18200
H1311       H  0.12282423  0.51061255  0.33982044     0.14700
H1312       H  0.08756686  0.95250167  0.33289907     0.14700
H1313       H  0.10020110  0.54337647  0.17535209     0.14700
H1314       H  0.06841550  0.98412010  0.16876925     0.14700
H1315       H  0.18705401  0.60953656  0.28121947     0.13000
H1316       H  0.18746486  0.61499059  0.23660291     0.13000
H1317       H  0.07612489  0.88113622  0.25828731     0.13000
H1318       H  0.06789047  0.88837610  0.21426752     0.13000
H1319       H  0.12683233  0.49412097  0.26800512     0.26200
H1320       H  0.12285665  0.50070558  0.22903853     0.26200
C1321       C  0.32454322  0.51575561  0.10289646     0.02300
C1322       C  0.31596649  0.98425512  0.10155167     0.02300
C1323       C  0.32716581  0.97206686  0.11831085    -0.18200
C1324       C  0.34704147  0.99036652  0.13614932     0.02300
C1325       C  0.35482209  0.52171578  0.13794056     0.02300
C1326       C  0.34317172  0.53363972  0.12142003    -0.18200
H1327       H  0.34929716  0.55756504  0.12270839     0.04400
H1328       H  0.32037137  0.94791203  0.11738336     0.04400
C1329       C  0.16731694  0.67879559  0.40107314     0.02300
C1330       C  0.18746569  0.66719107  0.40152230     0.02300
C1331       C  0.18418903  0.64538868  0.38497763    -0.18200
C1332       C  0.16234304  0.63582077  0.36722495     0.02300
C1333       C  0.14341012  0.64927204  0.36543896     0.02300
C1334       C  0.14559146  0.66969035  0.38311326    -0.18200
H1335       H  0.13081766  0.67943509  0.38249008     0.04400
H1336       H  0.19882837  0.63549663  0.38607194     0.04400
C1337       C  0.19018700  0.67353176  0.10343732     0.02300
C1338       C  0.16684681  0.68058365  0.09967602     0.02300
C1339       C  0.14285841  0.67042068  0.11570365    -0.18200
C1340       C  0.14185556  0.65422769  0.13582194     0.02300
C1341       C  0.16541179  0.64726476  0.13986013     0.02300
C1342       C  0.18945781  0.65761997  0.12372107    -0.18200
H1343       H  0.20736421  0.65224941  0.12658319     0.04400
H1344       H  0.12506238  0.67597307  0.11279113     0.04400
C1345       C  0.48997260  0.80942887  0.39738041     0.02300
C1346       C  0.02024376  0.81613077  0.39351739     0.02300
C1347       C  0.03522529  0.83026302  0.37274378    -0.18200
C1348       C  0.02285429  0.84240495  0.35702122     0.02300
C1349       C  0.49288508  0.83724889  0.36166007     0.02300
C1350       C  0.47659818  0.81969862  0.38112699    -0.18200
H1351       H  0.45331540  0.81452892  0.38397359     0.04400
H1352       H  0.05775980  0.83356158  0.36963692     0.04400
C1353       C  0.48196563  0.81404910  0.09843096     0.02300
C1354       C  0.01344058  0.83504807  0.09522204     0.02300
C1355       C  0.02912399  0.85817985  0.11176454    -0.18200
C1356       C  0.01442188  0.86086507  0.13144928     0.02300
C1357       C  0.48336333  0.83796933  0.13577204     0.02300
C1358       C  0.46759157  0.81519151  0.11887360    -0.18200
H1359       H  0.44362810  0.79820700  0.12147310    -0.06200
H1360       H  0.05328263  0.87445543  0.10920121     0.04400
C1361       C  0.04219992  0.86164981  0.33693899    -0.06100
C1362       C  0.02854067  0.85835788  0.31506728    -0.17200
C1363       C  0.04214172  0.88168315  0.29831095     0.11100
C1364       C  0.07301941  0.90572751  0.30113623    -0.06000
C1365       C  0.08898007  0.90459649  0.32070144    -0.17200
C1366       C  0.07340111  0.88524045  0.33947109     0.11200
S1367       S  0.01723460  0.88099701  0.27563324    -0.32200
S1368       S  0.09376444  0.89569084  0.36673795    -0.32200
H1369       H  0.06879577  0.89212635  0.37989005     0.29200
H1370       H  0.02875921  0.91295805  0.27590745     0.29200
H1371       H  0.00545874  0.83954828  0.31207481     0.19800
H1372       H  0.11286556  0.92208792  0.32284989     0.19800
C1373       C  0.03285495  0.88722868  0.14739176    -0.06100
C1374       C  0.06142956  0.89241299  0.15509755    -0.17200
C1375       C  0.07806395  0.91450224  0.17203266     0.11100
C1376       C  0.06446165  0.92935403  0.18352250    -0.06000
C1377       C  0.03650439  0.92507225  0.17516154    -0.17200
C1378       C  0.02227133  0.90647646  0.15583308     0.11200
S1379       S  0.11615867  0.92217025  0.17847174    -0.32200
S1380       S  0.49241956  0.90977729  0.14194766    -0.32200
H1381       H  0.49514633  0.89881858  0.12016425     0.29200
H1382       H  0.12777451  0.95265705  0.18603352     0.29200
H1383       H  0.07074161  0.87890039  0.14812318     0.19800
H1384       H  0.02639854  0.93732920  0.18311080     0.19800
C1385       C  0.15298660  0.56755655  0.31787584    -0.06100
C1386       C  0.12862600  0.56297296  0.33236839    -0.17200
C1387       C  0.13402167  0.58193932  0.35153417     0.11100
C1388       C  0.15999410  0.61147380  0.35136621    -0.06000
C1389       C  0.18526842  0.61590782  0.33817448    -0.17200
C1390       C  0.18261540  0.59252533  0.32328853     0.11200
S1391       S  0.11023124  0.56716502  0.37718038    -0.32200
S1392       S  0.21744170  0.59503330  0.31292738    -0.32200
H1393       H  0.20395116  0.56386178  0.30656514     0.29200
H1394       H  0.09009725  0.53772707  0.36806259     0.29200
H1395       H  0.10577843  0.54363973  0.32963191     0.19800
H1396       H  0.20726933  0.63675266  0.34036721     0.19800
C1397       C  0.16462147  0.62799833  0.16003142    -0.06100
C1398       C  0.15896479  0.63486850  0.18253602    -0.17200
C1399       C  0.15016931  0.61328252  0.20057680     0.11100
C1400       C  0.15219101  0.58648929  0.19742363    -0.06000
C1401       C  0.16264564  0.58219960  0.17596274    -0.17200
C1402       C  0.16676308  0.60120904  0.15697773     0.11200
S1403       S  0.13366070  0.61991038  0.22601648    -0.32200
S1404       S  0.17116181  0.58766513  0.12907960    -0.32200
H1405       H  0.15126208  0.59490076  0.11734511     0.29200
H1406       H  0.11195929  0.58876298  0.23014221     0.29200
H1407       H  0.15807126  0.65565034  0.18544561     0.19800
H1408       H  0.16430949  0.56178501  0.17327963     0.19800
C1409       C  0.47693681  0.84842531  0.34628302    -0.06100
C1410       C  0.44832936  0.82656843  0.33706734    -0.17200
C1411       C  0.43279249  0.83513689  0.32153183     0.11100
C1412       C  0.44745390  0.86566823  0.31304692    -0.06000
C1413       C  0.47569572  0.88768482  0.32265845    -0.17200
C1414       C  0.48948834  0.87979046  0.34023477     0.11200
S1415       S  0.39442384  0.80609264  0.31333282    -0.32200
S1416       S  0.02234163  0.91065882  0.35438865    -0.32200
H1417       H  0.01877546  0.89483675  0.37533151     0.29200
H1418       H  0.38405924  0.82656872  0.30819493     0.29200
H1419       H  0.43785014  0.80260053  0.34218128     0.19800
H1420       H  0.48650878  0.91146137  0.31696421     0.19800
C1421       C  0.43912877  0.85444433  0.19287386    -0.06100
C1422       C  0.46669851  0.85459292  0.19636143    -0.17200
C1423       C  0.47850334  0.84377335  0.17932383     0.11100
C1424       C  0.46609014  0.83835331  0.15670144    -0.06000
C1425       C  0.43738070  0.83593400  0.15364786    -0.17200
C1426       C  0.42299460  0.84202546  0.17188899     0.11200
S1427       S  0.00849189  0.83655027  0.18774543    -0.32200
S1428       S  0.38452511  0.83424015  0.16708372    -0.32200
H1429       H  0.37597074  0.82986641  0.19061347     0.29200
H1430       H  0.00469184  0.81710310  0.16896135     0.29200
H1431       H  0.47903914  0.86282359  0.21257280     0.19800
H1432       H  0.42637652  0.83012314  0.13680988     0.19800
C1433       C  0.37528664  0.95242263  0.31125444    -0.06100
C1434       C  0.39700775  0.97859416  0.32347684    -0.17200
C1435       C  0.38845310  0.99022523  0.34223268     0.11100
C1436       C  0.35703246  0.97794037  0.34722252    -0.06000
C1437       C  0.33534975  0.95146276  0.33522532    -0.17200
C1438       C  0.34416437  0.93815054  0.31782108     0.11200
S1439       S  0.41878858  0.51907194  0.35996198    -0.32200
S1440       S  0.31451034  0.90325709  0.30451675    -0.32200
H1441       H  0.33298857  0.89066565  0.29924197     0.29200
H1442       H  0.40111625  0.51329305  0.38014685     0.29200
H1443       H  0.42106130  0.98894391  0.31917664     0.19800
H1444       H  0.31123330  0.94134562  0.33919555     0.19800
C1445       C  0.35828612  0.97568087  0.15307481    -0.06100
C1446       C  0.33668771  0.94948752  0.16539460    -0.17200
C1447       C  0.34570675  0.93587639  0.18249445     0.11100
C1448       C  0.37684644  0.95008607  0.18905596    -0.06000
C1449       C  0.39848054  0.97620232  0.17669036    -0.17200
C1450       C  0.38973886  0.98768673  0.15785014     0.11200
S1451       S  0.31637283  0.90038534  0.19532350    -0.32200
S1452       S  0.41974158  0.51593192  0.13961306    -0.32200
H1453       H  0.40196190  0.50810447  0.11930275     0.29200
H1454       H  0.33523917  0.88791067  0.19953005     0.29200
H1455       H  0.31254441  0.93939143  0.16155134     0.19800
H1456       H  0.42253535  0.98680474  0.18104914     0.19800
C1457       C  0.37423168  0.54490078  0.34278207    -0.06100
C1458       C  0.40038213  0.57293531  0.34911223    -0.17200
C1459       C  0.42294446  0.59109862  0.33279819     0.11100
C1460       C  0.42086309  0.57987481  0.30995945    -0.06000
C1461       C  0.39364459  0.55307884  0.30331318    -0.17200
C1462       C  0.36967934  0.53683368  0.31901685     0.11200
S1463       S  0.45380553  0.62805616  0.34230777    -0.32200
S1464       S  0.33364822  0.00716467  0.30733381    -0.32200
H1465       H  0.31554384  0.00669080  0.32598875     0.29200
H1466       H  0.46100351  0.64175361  0.32018912     0.29200
H1467       H  0.40368601  0.58042495  0.36703686     0.19800
H1468       H  0.39087672  0.54474419  0.28563571     0.19800
C1469       C  0.41669468  0.57462163  0.19326247    -0.06100
C1470       C  0.42137495  0.58744547  0.17093181    -0.17200
C1471       C  0.40165662  0.57114877  0.15257793     0.11100
C1472       C  0.37486868  0.54229851  0.15694584    -0.06000
C1473       C  0.36801407  0.53186468  0.17999887    -0.17200
C1474       C  0.38918164  0.54671069  0.19786140     0.11200
S1475       S  0.41410236  0.58726832  0.12393308    -0.32200
S1476       S  0.38077470  0.02728888  0.22547217    -0.32200
H1477       H  0.41043480  0.53235004  0.22896297     0.29200
H1478       H  0.40396334  0.55904441  0.11255651     0.29200
H1479       H  0.44223432  0.60899398  0.16728621     0.19800
H1480       H  0.34707132  0.01048519  0.18380381     0.19800
C1481       C  0.08028281  0.63455597  0.30873682    -0.06100
C1482       C  0.10297384  0.66460215  0.31510389    -0.17200
C1483       C  0.12523721  0.66976352  0.33195914     0.11100
C1484       C  0.12285058  0.64463702  0.34495874    -0.06000
C1485       C  0.09887950  0.61507056  0.33914151    -0.17200
C1486       C  0.08021790  0.60958874  0.31983272     0.11200
S1487       S  0.15595684  0.70893112  0.33600250    -0.32200
S1488       S  0.05659134  0.57005380  0.31052543    -0.32200
H1489       H  0.05476105  0.57691506  0.28713294     0.29200
H1490       H  0.17805140  0.70121190  0.34232943     0.29200
H1491       H  0.10383785  0.68414591  0.30645932     0.19800
H1492       H  0.09350763  0.59576973  0.34979536     0.19800
C1493       C  0.11658460  0.64607131  0.15266636    -0.06100
C1494       C  0.09824200  0.61527003  0.15987718    -0.17200
C1495       C  0.07793219  0.60753267  0.17851924     0.11100
C1496       C  0.07311019  0.63038940  0.18845715    -0.06000
C1497       C  0.08942470  0.66056610  0.17989861    -0.17200
C1498       C  0.11181317  0.66891788  0.16283766     0.11200
S1499       S  0.05983794  0.56851343  0.18930587    -0.32200
S1500       S  0.13453916  0.70940943  0.15596883    -0.32200
H1501       H  0.16238766  0.70980322  0.15395881     0.29200
H1502       H  0.05643748  0.57544929  0.21233170     0.29200
H1503       H  0.10144586  0.59752136  0.15208176     0.19800
H1504       H  0.08570088  0.67811565  0.18744735     0.19800
C1505       C  0.16799221  0.74777730  0.05293761    -0.06100
C1506       C  0.14438028  0.71681276  0.05142995    -0.17200
C1507       C  0.14447671  0.69384520  0.06512770     0.11100
C1508       C  0.16866336  0.70180298  0.08097891    -0.06000
C1509       C  0.19291944  0.73239083  0.08179079    -0.17200
C1510       C  0.19272057  0.75542694  0.06831560     0.11200
S1511       S  0.11285307  0.65495086  0.06163631    -0.32200
S1512       S  0.22349583  0.79434330  0.07323183    -0.32200
H1513       H  0.20415516  0.80677599  0.07456054     0.29200
H1514       H  0.12701381  0.63977963  0.07142041     0.29200
H1515       H  0.12559782  0.71036357  0.03945508     0.19800
H1516       H  0.21122734  0.73881190  0.09422330     0.19800
C1517       C  0.07660599  0.82726849  0.05020460    -0.06100
C1518       C  0.07405002  0.85379617  0.04933125    -0.17200
C1519       C  0.05227041  0.85637347  0.06243010     0.11100
C1520       C  0.03173257  0.83148375  0.07668083    -0.06000
C1521       C  0.03302995  0.80427962  0.07658255    -0.17200
C1522       C  0.05540647  0.80203846  0.06393833     0.11200
S1523       S  0.05321453  0.89271372  0.06053757    -0.32200
S1524       S  0.05717702  0.76748479  0.06799315    -0.32200
H1525       H  0.08883285  0.78348639  0.07255865     0.29200
H1526       H  0.02552247  0.88400504  0.07180000     0.29200
H1527       H  0.08964499  0.87318802  0.03863219     0.19800
H1528       H  0.01804297  0.78544007  0.08795539     0.19800
C1529       C  0.29352818  0.96270673  0.08415758    -0.06100
C1530       C  0.26327460  0.95648628  0.08526036    -0.17200
C1531       C  0.23989094  0.93286354  0.07204764     0.11100
C1532       C  0.24681929  0.91545661  0.05638591    -0.06000
C1533       C  0.27727198  0.92195123  0.05525408    -0.17200
C1534       C  0.30050274  0.94516814  0.06884600     0.11200
S1535       S  0.20149152  0.92474783  0.07755033    -0.32200
S1536       S  0.33860902  0.95122619  0.06576404    -0.32200
H1537       H  0.35437429  0.98234957  0.07250686     0.29200
H1538       H  0.18878270  0.89257387  0.07823959     0.29200
H1539       H  0.25747281  0.96904790  0.09751242     0.19800
H1540       H  0.28322447  0.90906335  0.04345180     0.19800
C1541       C  0.17142933  0.74855744  0.44697117    -0.06100
C1542       C  0.14873510  0.71741308  0.45002308    -0.17200
C1543       C  0.14746058  0.69407865  0.43594418     0.11100
C1544       C  0.16947378  0.70176225  0.41826405    -0.06000
C1545       C  0.19246094  0.73264921  0.41537147    -0.17200
C1546       C  0.19343929  0.75607486  0.42916209     0.11200
S1547       S  0.11675699  0.65514925  0.44130735    -0.32200
S1548       S  0.22188825  0.79511238  0.42177856    -0.32200
H1549       H  0.20151866  0.80630424  0.42324622     0.29200
H1550       H  0.12936932  0.63953903  0.42989505     0.29200
H1551       H  0.13171592  0.71108720  0.46354575     0.19800
H1552       H  0.20896097  0.73876007  0.40148228     0.19800
C1553       C  0.08421846  0.82377066  0.44550741    -0.06100
C1554       C  0.07334919  0.79977934  0.42908265    -0.17200
C1555       C  0.05140454  0.79553662  0.41248124     0.11100
C1556       C  0.03922499  0.81523944  0.41259109    -0.06000
C1557       C  0.04942788  0.83873014  0.42928390    -0.17200
C1558       C  0.07186411  0.84339245  0.44564669     0.11200
S1559       S  0.04095734  0.76516986  0.39144823    -0.32200
S1560       S  0.08407555  0.87420618  0.46655129    -0.32200
H1561       H  0.06381543  0.88413612  0.45973736     0.29200
H1562       H  0.51744462  0.76698947  0.37999441     0.29200
H1563       H  0.08271699  0.78463453  0.42870680     0.19800
H1564       H  0.04067509  0.85435347  0.42878953     0.19800
C1565       C  0.29264040  0.96588299  0.41608105    -0.06100
C1566       C  0.30336351  0.95401691  0.43337457    -0.17200
C1567       C  0.28335517  0.93200220  0.44950316     0.11100
C1568       C  0.25147217  0.92087470  0.44829580    -0.06000
C1569       C  0.24099282  0.93354284  0.43139449    -0.17200
C1570       C  0.26092760  0.95522410  0.41512729     0.11200
S1571       S  0.30018727  0.91978075  0.47151022    -0.32200
S1572       S  0.24393881  0.96659974  0.39267098    -0.32200
H1573       H  0.26404886  0.96890732  0.37494769     0.29200
H1574       H  0.28048891  0.91823668  0.48933513     0.29200
H1575       H  0.32760911  0.96195088  0.43427048     0.19800
H1576       H  0.21671615  0.92529341  0.43002918     0.19800
C1577       C  0.07652105  0.74764293  0.94800574    -0.06100
C1578       C  0.07675499  0.75500505  0.92436630    -0.17200
C1579       C  0.05512402  0.73408579  0.90857831     0.11100
C1580       C  0.03281453  0.70420455  0.91607336    -0.06000
C1581       C  0.03203711  0.69687566  0.93965454    -0.17200
C1582       C  0.05282268  0.71824023  0.95569433     0.11200
S1583       S  0.05756489  0.74717295  0.87905086    -0.32200
S1584       S  0.04764939  0.70587885  0.98551261    -0.32200
H1585       H  0.04530916  0.73108921  0.99334580     0.29200
H1586       H  0.02670675  0.72725397  0.87332204     0.29200
H1587       H  0.09400546  0.77741233  0.91793965     0.19800
H1588       H  0.01543075  0.67397902  0.94563752     0.19800
C1589       C  0.17316313  0.96446254  0.92028175    -0.06100
C1590       C  0.15699257  0.95841623  0.94120379    -0.17200
C1591       C  0.15522003  0.93611328  0.95676222     0.11100
C1592       C  0.17027935  0.91960668  0.95142921    -0.06000
C1593       C  0.18773420  0.92699731  0.93101505    -0.17200
C1594       C  0.18941191  0.94913852  0.91548251     0.11200
S1595       S  0.13119459  0.92805747  0.98192344    -0.32200
S1596       S  0.21118692  0.95509962  0.88919735    -0.32200
H1597       H  0.21359246  0.98287246  0.88209212     0.29200
H1598       H  0.11684066  0.89582570  0.97981309     0.29200
H1599       H  0.14399331  0.96966245  0.94470803     0.19800
H1600       H  0.19979480  0.91495595  0.92685815     0.19800
C1601       C  0.28967723  0.82036209  0.58266359    -0.06100
C1602       C  0.30024813  0.83755027  0.56209623    -0.17200
C1603       C  0.28024396  0.84011384  0.54677942     0.11100
C1604       C  0.24846503  0.82423895  0.55157327    -0.06000
C1605       C  0.23774301  0.80561223  0.57154190    -0.17200
C1606       C  0.25787836  0.80348636  0.58707293     0.11200
S1607       S  0.29729957  0.86655118  0.52286034    -0.32200
S1608       S  0.24146750  0.77946207  0.61239128    -0.32200
H1609       H  0.26724946  0.77784360  0.61905076     0.29200
H1610       H  0.27977537  0.88074663  0.52620137     0.29200
H1611       H  0.32463429  0.85119731  0.55886089     0.19800
H1612       H  0.21343346  0.79287178  0.57528432     0.19800
C1613       C  0.28218715  0.81906406  0.91611762    -0.06100
C1614       C  0.29345280  0.83358761  0.93755676    -0.17200
C1615       C  0.27436883  0.83670703  0.95355909     0.11100
C1616       C  0.24294058  0.82443511  0.94828011    -0.06000
C1617       C  0.23146814  0.80816240  0.92738823    -0.17200
C1618       C  0.25056989  0.80521475  0.91142080     0.11200
S1619       S  0.29234779  0.85904073  0.97923864    -0.32200
S1620       S  0.23334763  0.78450669  0.88491987    -0.32200
H1621       H  0.25631934  0.77779950  0.87928412     0.29200
H1622       H  0.27848392  0.87709468  0.97725100     0.29200
H1623       H  0.31776607  0.84469492  0.94109886     0.19800
H1624       H  0.20737001  0.79785520  0.92326989     0.19800
C1625       C  0.17695677  0.91870401  0.55368369    -0.06100
C1626       C  0.15989472  0.93315264  0.54939785    -0.17200
C1627       C  0.15997779  0.95451809  0.56508575     0.11100
C1628       C  0.17837952  0.96270086  0.58525348    -0.06000
C1629       C  0.19621232  0.94910196  0.58918030    -0.17200
C1630       C  0.19608244  0.92768080  0.57357393     0.11200
S1631       S  0.13454793  0.96892333  0.55910122    -0.32200
S1632       S  0.22143407  0.91328518  0.57987669    -0.32200
H1633       H  0.22937170  0.91266391  0.55656532     0.29200
H1634       H  0.12639257  0.46972987  0.58228149     0.29200
H1635       H  0.14507121  0.92653813  0.53434233     0.19800
H1636       H  0.21021638  0.95508357  0.60467139     0.19800
C1637       C  0.07903342  0.74974852  0.55258560    -0.06100
C1638       C  0.06424937  0.71814898  0.54719936    -0.17200
C1639       C  0.04262460  0.69572984  0.56228843     0.11100
C1640       C  0.03441133  0.70483952  0.58297132    -0.06000
C1641       C  0.04800805  0.73641756  0.58780086    -0.17200
C1642       C  0.06981706  0.75883735  0.57286248     0.11200
S1643       S  0.02784844  0.65593963  0.55479157    -0.32200
S1644       S  0.08453823  0.79861347  0.58057753    -0.32200
H1645       H  0.08603062  0.80877855  0.55760256     0.29200
H1646       H  0.02789007  0.64594390  0.57756338     0.29200
H1647       H  0.07085502  0.71068233  0.53175110     0.19800
H1648       H  0.04190830  0.74366316  0.60362336     0.19800
C1649       C  0.41361111  0.86455587  0.80579401    -0.06100
C1650       C  0.38699850  0.83522187  0.80600558    -0.17200
C1651       C  0.36444483  0.82682927  0.82321552     0.11100
C1652       C  0.36930383  0.84755976  0.84153961    -0.06000
C1653       C  0.39698436  0.87572472  0.84228691    -0.17200
C1654       C  0.41803534  0.88524124  0.82406437     0.11200
S1655       S  0.33089139  0.78886929  0.82107808    -0.32200
S1656       S  0.45030547  0.92408450  0.82537338    -0.32200
H1657       H  0.45400090  0.92837406  0.80122250     0.29200
H1658       H  0.31227569  0.79246418  0.83721730     0.29200
H1659       H  0.38378367  0.81868615  0.79266659     0.19800
H1660       H  0.40211761  0.89079401  0.85707885     0.19800
C1661       C  0.06870947  0.92685632  0.81628978    -0.06100
C1662       C  0.08729080  0.91517065  0.82341530    -0.17200
C1663       C  0.11071509  0.93102439  0.83961623     0.11100
C1664       C  0.11425674  0.95812789  0.85018676    -0.06000
C1665       C  0.09300166  0.96733367  0.84510645    -0.17200
C1666       C  0.07113604  0.95281371  0.82773302     0.11200
S1667       S  0.13667395  0.91684246  0.84414871    -0.32200
S1668       S  0.04795725  0.96942556  0.82032939    -0.32200
H1669       H  0.04762404  0.96461173  0.79628044     0.29200
H1670       H  0.16313038  0.94577926  0.84729972     0.29200
H1671       H  0.08497865  0.89484344  0.81500887     0.19800
H1672       H  0.09469808  0.98726325  0.85373384     0.19800
C1673       C  0.13350640  0.96591629  0.66112798    -0.06100
C1674       C  0.10668481  0.93750948  0.65682508    -0.17200
C1675       C  0.08481597  0.92211331  0.67419312     0.11100
C1676       C  0.08767330  0.93693849  0.69571163    -0.06000
C1677       C  0.11511100  0.96461126  0.70030563    -0.17200
C1678       C  0.13899740  0.97735341  0.68412716     0.11200
S1679       S  0.05325314  0.88417325  0.66743647    -0.32200
S1680       S  0.17615359  0.50640843  0.69451042    -0.32200
H1681       H  0.19284609  0.50348231  0.67620884     0.29200
H1682       H  0.04710379  0.87366223  0.69051344     0.29200
H1683       H  0.10227267  0.92739189  0.63966165     0.19800
H1684       H  0.11832644  0.97616309  0.71679909     0.19800
C1685       C  0.43217181  0.87913024  0.68370535    -0.06100
C1686       C  0.43012547  0.90223456  0.67149301    -0.17200
C1687       C  0.41083920  0.89500457  0.65217010     0.11100
C1688       C  0.39061669  0.86370505  0.64657689    -0.06000
C1689       C  0.39377865  0.84087603  0.65811465    -0.17200
C1690       C  0.41498778  0.84836754  0.67596325     0.11200
S1691       S  0.41184859  0.92636980  0.63624845    -0.32200
S1692       S  0.41850258  0.81752027  0.68862368    -0.32200
H1693       H  0.44988177  0.83552879  0.69378405     0.29200
H1694       H  0.39901379  0.90971641  0.61569274     0.29200
H1695       H  0.44376304  0.92603641  0.67698121     0.19800
H1696       H  0.37904121  0.81684097  0.65354536     0.19800
C1697       C  0.05848672  0.63144903  0.81074751    -0.06100
C1698       C  0.06884181  0.63585911  0.83382317    -0.17200
C1699       C  0.05181263  0.63836813  0.85196724     0.11100
C1700       C  0.02564082  0.64075428  0.84696582    -0.06000
C1701       C  0.01600682  0.63745025  0.82367391    -0.17200
C1702       C  0.03057118  0.63036194  0.80610472     0.11200
S1703       S  0.06375409  0.63618961  0.88107050    -0.32200
S1704       S  0.01136392  0.61812851  0.77853719    -0.32200
H1705       H  0.02080210  0.59679919  0.77379797     0.29200
H1706       H  0.03412446  0.62124798  0.89061375     0.29200
H1707       H  0.08964498  0.63573098  0.83792324     0.19800
H1708       H  0.49639497  0.63947276  0.81907601     0.19800
C1709       C  0.14283268  0.55840488  0.80717340    -0.06100
C1710       C  0.14337532  0.53130920  0.80229028    -0.17200
C1711       C  0.15266413  0.51753978  0.81900221     0.11100
C1712       C  0.15591301  0.52723618  0.84242231    -0.06000
C1713       C  0.15502551  0.55414218  0.84735536    -0.17200
C1714       C  0.15064333  0.57078191  0.82987241     0.11200
S1715       S  0.16264010  0.98997999  0.80875430    -0.32200
S1716       S  0.15613576  0.60798410  0.83768082    -0.32200
H1717       H  0.16681249  0.62150462  0.81575202     0.29200
H1718       H  0.18371995  0.99546178  0.82660628     0.29200
H1719       H  0.13776873  0.52142525  0.78504889     0.19800
H1720       H  0.15836308  0.56274206  0.86497763     0.19800
C1721       C  0.14749174  0.56940548  0.68684645    -0.06100
C1722       C  0.12251234  0.54302704  0.67710091    -0.17200
C1723       C  0.12664102  0.52654198  0.65935505     0.11100
C1724       C  0.15662932  0.53447009  0.65286399    -0.06000
C1725       C  0.18150064  0.56164025  0.66190290    -0.17200
C1726       C  0.17717735  0.57963940  0.67821134     0.11200
S1727       S  0.09287373  0.49701017  0.64492220    -0.32200
S1728       S  0.21043920  0.61512384  0.68734318    -0.32200
H1729       H  0.19479837  0.63041701  0.69366747     0.29200
H1730       H  0.10732249  0.99781055  0.62390216     0.29200
H1731       H  0.09949351  0.53589034  0.68285025     0.19800
H1732       H  0.20459234  0.56866742  0.65643388     0.19800
C1733       C  0.06740514  0.64854837  0.69376886    -0.06100
C1734       C  0.07432696  0.67823873  0.68701917    -0.17200
C1735       C  0.05605166  0.68245749  0.67072787     0.11100
C1736       C  0.03224836  0.65660304  0.65896863    -0.06000
C1737       C  0.02664382  0.62728069  0.66520469    -0.17200
C1738       C  0.04190813  0.62285297  0.68352276     0.11200
S1739       S  0.06407318  0.72127171  0.66603243    -0.32200
S1740       S  0.02819445  0.58353726  0.69240916    -0.32200
H1741       H  0.03718080  0.59047167  0.71574733     0.29200
H1742       H  0.03369729  0.71290804  0.66086139     0.29200
H1743       H  0.09381329  0.69822189  0.69463805     0.19800
H1744       H  0.51056982  0.60726217  0.65558560     0.19800
C1745       C  0.41741157  0.56932775  0.81470104    -0.06100
C1746       C  0.43470379  0.56074606  0.82859330    -0.17200
C1747       C  0.45326925  0.57974599  0.84661422     0.11100
C1748       C  0.45545945  0.60852516  0.85036557    -0.06000
C1749       C  0.43727218  0.61647688  0.83700420    -0.17200
C1750       C  0.41807594  0.59711854  0.81949831     0.11200
S1751       S  0.47341949  0.56599515  0.86408119    -0.32200
S1752       S  0.39557413  0.60950839  0.80357131    -0.32200
H1753       H  0.37168493  0.57987290  0.79767471     0.29200
H1754       H  0.47501391  0.58247811  0.88422149     0.29200
H1755       H  0.43388614  0.53916298  0.82521747     0.19800
H1756       H  0.43842906  0.63829178  0.84003863     0.19800
C1757       C  0.33245554  0.91772167  0.80969426    -0.06100
C1758       C  0.30475401  0.88981446  0.81270853    -0.17200
C1759       C  0.30240711  0.86754003  0.82856958     0.11100
C1760       C  0.32766787  0.87410540  0.84296780    -0.06000
C1761       C  0.35394187  0.90334718  0.84165205    -0.17200
C1762       C  0.35744627  0.92435613  0.82436600     0.11200
S1763       S  0.26660806  0.83144446  0.82946948    -0.32200
S1764       S  0.39456989  0.95871668  0.82054441    -0.32200
H1765       H  0.40946136  0.95370017  0.83916491     0.29200
H1766       H  0.27879143  0.81331627  0.83689468     0.29200
H1767       H  0.28527400  0.88481151  0.80189540     0.19800
H1768       H  0.37190801  0.90977255  0.85422876     0.19800
C1769       C  0.42599983  0.57837883  0.69212817    -0.06100
C1770       C  0.43761901  0.56879044  0.67382510    -0.17200
C1771       C  0.45343703  0.58819323  0.65523962     0.11100
C1772       C  0.46277007  0.61979376  0.65661924    -0.06000
C1773       C  0.45145085  0.62976939  0.67478757    -0.17200
C1774       C  0.43175035  0.60907609  0.69170147     0.11200
S1775       S  0.45989197  0.57046803  0.63021333    -0.32200
S1776       S  0.41335502  0.62287838  0.71106891    -0.32200
H1777       H  0.38692814  0.59401010  0.71475406     0.29200
H1778       H  0.48149731  0.59717681  0.61854764     0.29200
H1779       H  0.43313113  0.54533712  0.67343698     0.19800
H1780       H  0.45674071  0.65349990  0.67508916     0.19800
C1781       C  0.33922353  0.87974337  0.65342188    -0.06100
C1782       C  0.35263155  0.88176635  0.67525326    -0.17200
C1783       C  0.35852556  0.90563579  0.69061257     0.11100
C1784       C  0.34245137  0.92162351  0.68817929    -0.06000
C1785       C  0.32460583  0.91606484  0.66820958    -0.17200
C1786       C  0.32629879  0.89885727  0.64976155     0.11200
S1787       S  0.38769486  0.91553054  0.71237511    -0.32200
S1788       S  0.31470463  0.90563075  0.62179486    -0.32200
H1789       H  0.33767975  0.90388321  0.60937274     0.29200
H1790       H  0.39742555  0.94711925  0.71301947     0.29200
H1791       H  0.36070193  0.86636629  0.67992682     0.19800
H1792       H  0.31081327  0.92670701  0.66622120     0.19800
C1793       C  0.42015322  0.66865843  0.55193777    -0.06100
C1794       C  0.42353041  0.64270944  0.55263616    -0.17200
C1795       C  0.44483589  0.64144452  0.56741790     0.11100
C1796       C  0.46423313  0.66726813  0.58142453    -0.06000
C1797       C  0.46170132  0.69373307  0.57997414    -0.17200
C1798       C  0.43988137  0.69466523  0.56551245     0.11200
S1799       S  0.44444001  0.60535098  0.56834234    -0.32200
S1800       S  0.43802877  0.72949916  0.56543038    -0.32200
H1801       H  0.42865060  0.72723203  0.54218927     0.29200
H1802       H  0.47184898  0.61545422  0.58044987     0.29200
H1803       H  0.40845911  0.62266215  0.54230047     0.19800
H1804       H  0.47595150  0.71336169  0.59094791     0.19800
C1805       C  0.32011052  0.57768596  0.44845159    -0.06100
C1806       C  0.30369772  0.57262623  0.42773539    -0.17200
C1807       C  0.30263613  0.55201537  0.41093542     0.11100
C1808       C  0.31754558  0.53510649  0.41525379    -0.06000
C1809       C  0.33213234  0.53864856  0.43670084    -0.17200
C1810       C  0.33356902  0.55965275  0.45328533     0.11200
S1811       S  0.28323977  0.05011399  0.38410005    -0.32200
S1812       S  0.35326047  0.56267084  0.48009783    -0.32200
H1813       H  0.33479781  0.56972987  0.49396556     0.29200
H1814       H  0.28525904  0.02638246  0.37317190     0.29200
H1815       H  0.29306376  0.58617954  0.42400252     0.19800
H1816       H  0.34387394  0.52607565  0.44009194     0.19800
C1817       C  0.25197386  0.58065932  0.55253923    -0.06100
C1818       C  0.26183556  0.56622275  0.56832598    -0.17200
C1819       C  0.24114729  0.54275183  0.58316350     0.11100
C1820       C  0.20964950  0.53304973  0.58212000    -0.06000
C1821       C  0.19971124  0.54694276  0.56592670    -0.17200
C1822       C  0.22036077  0.57030398  0.55108354     0.11200
S1823       S  0.25673142  0.52740061  0.60382533    -0.32200
S1824       S  0.20553938  0.58839191  0.53246351    -0.32200
H1825       H  0.21248631  0.57783557  0.51206854     0.29200
H1826       H  0.23688347  0.52348419  0.62221727     0.29200
H1827       H  0.28598390  0.57380166  0.56949677     0.19800
H1828       H  0.17580914  0.54049905  0.56559753     0.19800
C1829       C  0.47082872  0.78952553  0.41694869    -0.06100
C1830       C  0.46424355  0.75890337  0.41773117    -0.17200
C1831       C  0.44235187  0.73729127  0.43303226     0.11100
C1832       C  0.42573310  0.74601537  0.44794000    -0.06000
C1833       C  0.43325898  0.77709047  0.44768215    -0.17200
C1834       C  0.45561987  0.79882142  0.43265560     0.11200
S1835       S  0.43531761  0.69853636  0.43118254    -0.32200
S1836       S  0.46322452  0.83790647  0.43424803    -0.32200
H1837       H  0.49254891  0.85219003  0.42430992     0.29200
H1838       H  0.44494730  0.69887027  0.45414917     0.29200
H1839       H  0.47530890  0.75130406  0.40557359     0.19800
H1840       H  0.42144937  0.78461912  0.45920645     0.19800
C1841       C  0.25564758  0.67895277  0.45096959    -0.06100
C1842       C  0.26460579  0.69309927  0.42913038    -0.17200
C1843       C  0.24300862  0.69176831  0.41327465     0.11100
C1844       C  0.21164154  0.67610792  0.41935574    -0.06000
C1845       C  0.20297179  0.66389289  0.44177689    -0.17200
C1846       C  0.22459022  0.66531047  0.45765673     0.11200
S1847       S  0.25671383  0.70874331  0.38502794    -0.32200
S1848       S  0.21100629  0.64878367  0.48600030    -0.32200
H1849       H  0.23829084  0.66888293  0.49779335     0.29200
H1850       H  0.23198954  0.71275851  0.37938848     0.29200
H1851       H  0.28838058  0.70383695  0.42388990     0.19800
H1852       H  0.17901701  0.65186066  0.44659592     0.19800
C1853       C  0.33541761  0.79878455  0.57918490    -0.06100
C1854       C  0.31120555  0.76812544  0.58057023    -0.17200
C1855       C  0.31042217  0.74502603  0.56658430     0.11100
C1856       C  0.33466429  0.75242818  0.55096702    -0.06000
C1857       C  0.35828532  0.78324479  0.54888256    -0.17200
C1858       C  0.35895299  0.80644766  0.56273726     0.11200
S1859       S  0.27771547  0.70667919  0.56936232    -0.32200
S1860       S  0.39070949  0.84514196  0.55872471    -0.32200
H1861       H  0.37596003  0.86047433  0.56707425     0.29200
H1862       H  0.27677967  0.69871838  0.54585715     0.29200
H1863       H  0.29309985  0.76189526  0.59310798     0.19800
H1864       H  0.37676254  0.78919511  0.53670405     0.19800
C1865       C  0.20714242  0.53393434  0.91696032    -0.06100
C1866       C  0.23802225  0.54281368  0.91491970    -0.17200
C1867       C  0.26029903  0.56632016  0.92874943     0.11100
C1868       C  0.25148827  0.58083449  0.94565286    -0.06000
C1869       C  0.22032079  0.57144815  0.94783437    -0.17200
C1870       C  0.19815211  0.54836446  0.93353272     0.11200
S1871       S  0.29961660  0.57824319  0.92245070    -0.32200
S1872       S  0.15852570  0.03810380  0.93584156    -0.32200
H1873       H  0.16245234  0.05829241  0.95412136     0.29200
H1874       H  0.30989840  0.60996266  0.92351510     0.29200
H1875       H  0.24503678  0.53253120  0.90157478     0.19800
H1876       H  0.21335984  0.58237375  0.96067087     0.19800
C1877       C  0.21304662  0.67846466  0.08518263    -0.06100
C1878       C  0.20217970  0.66499285  0.06334000    -0.17200
C1879       C  0.22157010  0.66350926  0.04676459     0.11100
C1880       C  0.25278515  0.67488796  0.05221966    -0.06000
C1881       C  0.26388401  0.68970087  0.07373854    -0.17200
C1882       C  0.24463065  0.69208933  0.08998021     0.11200
S1883       S  0.20425022  0.64473105  0.01979703    -0.32200
S1884       S  0.26180578  0.71267000  0.11652138    -0.32200
H1885       H  0.23967813  0.72094040  0.12114926     0.29200
H1886       H  0.22263830  0.67142774  0.00660027     0.29200
H1887       H  0.17802296  0.65430682  0.05943839     0.19800
H1888       H  0.28785801  0.69950211  0.07806727     0.19800
C1889       C  0.46297376  0.66915552  0.91918732    -0.06100
C1890       C  0.45209375  0.64993539  0.93872666    -0.17200
C1891       C  0.43086549  0.65071519  0.95395034     0.11100
C1892       C  0.41957943  0.67076973  0.94930973    -0.06000
C1893       C  0.43174472  0.69118051  0.93040697    -0.17200
C1894       C  0.45284935  0.69025375  0.91514111     0.11200
S1895       S  0.41895669  0.62643989  0.97947171    -0.32200
S1896       S  0.46489061  0.71571951  0.89037872    -0.32200
H1897       H  0.96835516  0.69624877  0.87479456     0.29200
H1898       H  0.43691033  0.61283864  0.97565009     0.29200
H1899       H  0.45965524  0.63358289  0.94161577     0.19800
H1900       H  0.42353952  0.70687333  0.92676131     0.19800
C1901       C  0.31996028  0.57553076  0.05146750    -0.06100
C1902       C  0.30709708  0.57273190  0.07363883    -0.17200
C1903       C  0.30506125  0.55094564  0.08980729     0.11100
C1904       C  0.31729792  0.53194999  0.08440453    -0.06000
C1905       C  0.32810924  0.53303163  0.06179070    -0.17200
C1906       C  0.32891063  0.55391119  0.04519176     0.11200
S1907       S  0.28712959  0.54898340  0.11730469    -0.32200
S1908       S  0.34332047  0.55270270  0.01691051    -0.32200
H1909       H  0.31659343  0.54768699  0.00552894     0.29200
H1910       H  0.27886232  0.51840300  0.12240725     0.29200
H1911       H  0.29876659  0.58791870  0.07863751     0.19800
H1912       H  0.33735357  0.51847183  0.05728661     0.19800
C1913       C  0.41899257  0.74618192  0.05039800    -0.06100
C1914       C  0.43323372  0.77762805  0.04480028    -0.17200
C1915       C  0.45448404  0.80020587  0.05976887     0.11100
C1916       C  0.46271478  0.79132198  0.08054693    -0.06000
C1917       C  0.44962549  0.75990672  0.08565414    -0.17200
C1918       C  0.42822026  0.73729749  0.07076969     0.11200
S1919       S  0.46830761  0.83980833  0.05209230    -0.32200
S1920       S  0.41410645  0.69766745  0.07866728    -0.32200
H1921       H  0.41328848  0.68760703  0.05575949     0.29200
H1922       H  0.46852755  0.84999171  0.07484043     0.29200
H1923       H  0.42643725  0.78483638  0.02929698     0.19800
H1924       H  0.45592930  0.75297660  0.10154757     0.19800
C1925       C  0.32436779  0.79272933  0.91598139    -0.06100
C1926       C  0.29896338  0.76287353  0.91762237    -0.17200
C1927       C  0.29932691  0.74047197  0.93190443     0.11100
C1928       C  0.32552499  0.74806573  0.94569007    -0.06000
C1929       C  0.35052592  0.77845656  0.94455951    -0.17200
C1930       C  0.35019385  0.80069682  0.93003910     0.11200
S1931       S  0.26640586  0.70219096  0.93008275    -0.32200
S1932       S  0.38359699  0.83884611  0.93013970    -0.32200
H1933       H  0.36850473  0.85457618  0.92343226     0.29200
H1934       H  0.28392881  0.68802009  0.92658004     0.29200
H1935       H  0.27925200  0.75640497  0.90665413     0.19800
H1936       H  0.37063192  0.78507564  0.95509621     0.19800
Zn1937     Zn  0.83107473  0.16549171  0.03277044     1.49700
Zn1938     Zn  0.83342958  0.13057924  0.98827873     1.49400
Zn1939     Zn  0.79370937  0.16446271  0.98808340     1.49100
Zn1940     Zn  0.86698556  0.20440996  0.98691492     1.49500
O1941       O  0.83134645  0.16639518  0.99886367    -1.84100
O1942       O  0.82415235  0.12465474  0.04549933    -0.74700
O1943       O  0.79809811  0.10512842  0.96702403    -0.74500
O1944       O  0.76894042  0.16640894  0.01499995    -0.74000
O1945       O  0.82934858  0.10175329  0.01461495    -0.74700
O1946       O  0.79770133  0.17198082  0.04561634    -0.74300
O1947       O  0.76844703  0.12580840  0.96885333    -0.74900
O1948       O  0.85393650  0.23012508  0.96760021    -0.74300
O1949       O  0.87290046  0.14397586  0.97073515    -0.75000
O1950       O  0.80336486  0.20116176  0.96780835    -0.74400
O1951       O  0.89420956  0.19468580  0.96693134    -0.74900
O1952       O  0.89378772  0.22928745  0.01387676    -0.74800
O1953       O  0.87126735  0.19981097  0.04476663    -0.74600
C1954       C  0.82471055  0.10189164  0.03630856     0.77200
C1955       C  0.77390687  0.10523706  0.96127778     0.77700
C1956       C  0.77411876  0.17079780  0.03669460     0.76600
C1957       C  0.82770237  0.22524446  0.96116201     0.77000
C1958       C  0.89433257  0.16978558  0.96314975     0.78200
C1959       C  0.89344003  0.22373181  0.03552445     0.77200
Zn1960     Zn  0.83556912  0.16794705  0.53486729     1.49700
Zn1961     Zn  0.84088589  0.20695926  0.48871385     1.49400
Zn1962     Zn  0.86844627  0.16214065  0.48948178     1.49100
Zn1963     Zn  0.79562393  0.13410983  0.49019688     1.49500
O1964       O  0.83526088  0.16788726  0.50082813    -1.84100
O1965       O  0.83244535  0.20431589  0.54661968    -0.74700
O1966       O  0.88020500  0.23049892  0.47000308    -0.74500
O1967       O  0.89434455  0.16134914  0.51602818    -0.74000
O1968       O  0.84159662  0.23354402  0.51516777    -0.74700
O1969       O  0.87519572  0.17192685  0.54708135    -0.74300
O1970       O  0.89745835  0.19798198  0.46873890    -0.74900
O1971       O  0.80138500  0.10599297  0.46854335    -0.74300
O1972       O  0.80501401  0.19975664  0.46833538    -0.75000
O1973       O  0.85115271  0.12235523  0.47115343    -0.74400
O1974       O  0.77134620  0.14995545  0.47346616    -0.74900
O1975       O  0.77035026  0.10709549  0.51668074    -0.74800
O1976       O  0.79965477  0.12793908  0.54773936    -0.74600
C1977       C  0.83631007  0.22880702  0.53683973     0.77200
C1978       C  0.89987474  0.22359105  0.46302002     0.77700
C1979       C  0.89532553  0.16739782  0.53758998     0.76600
C1980       C  0.82438348  0.10321958  0.46369376     0.77000
C1981       C  0.77851564  0.17623927  0.46517780     0.78200
C1982       C  0.77519026  0.10673147  0.53829725     0.77200
N1983       N  0.86586530  0.49521375  0.78504457    -0.36600
N1984       N  0.89712901  0.04485541  0.75210003    -0.57100
N1985       N  0.87371134  0.49873535  0.71564784    -0.36500
N1986       N  0.83983027  0.44910775  0.74880201    -0.57100
C1987       C  0.87509147  0.01989902  0.79901432     0.27000
C1988       C  0.84517005  0.47021411  0.79703329     0.27000
C1989       C  0.88400504  0.02521889  0.70338906     0.27000
C1990       C  0.85624601  0.47492036  0.70119340     0.27000
C1991       C  0.91114042  0.06000433  0.77180310     0.35700
C1992       C  0.91485128  0.06225670  0.73428187     0.35700
C1993       C  0.83326088  0.43021441  0.76736857     0.35700
C1994       C  0.83606887  0.43179211  0.72978904     0.35700
C1995       C  0.85938336  0.01067204  0.81988882    -0.21800
C1996       C  0.84038541  0.47919917  0.81862177    -0.21800
C1997       C  0.87198374  0.01816595  0.68118806    -0.21800
C1998       C  0.85547330  0.48666000  0.67953004    -0.21800
C1999       C  0.93721267  0.08759327  0.76647053    -0.22900
C2000       C  0.94006634  0.08873811  0.74274354    -0.22900
C2001       C  0.82396106  0.40055107  0.76003581    -0.22900
C2002       C  0.82473488  0.40133604  0.73630747    -0.22900
C2003       C  0.90027155  0.04950072  0.79451242    -0.18200
C2004       C  0.83576884  0.43958351  0.79081676    -0.18200
C2005       C  0.84389620  0.44322049  0.70672468    -0.18200
C2006       C  0.90737887  0.05502243  0.71055981    -0.18200
H2007       H  0.86247918  0.02492309  0.83487284     0.14700
H2008       H  0.82620717  0.46433335  0.83251785     0.14700
H2009       H  0.87604626  0.03405127  0.66711893     0.14700
H2010       H  0.84490652  0.47463283  0.66370159     0.14700
H2011       H  0.95223827  0.10527842  0.77847748     0.13000
H2012       H  0.95835724  0.10723119  0.73293088     0.13000
H2013       H  0.81747250  0.38030334  0.77046086     0.13000
H2014       H  0.81860861  0.38169741  0.72525024     0.13000
H2015       H  0.87732847  0.49465770  0.77028060     0.26200
H2016       H  0.88205999  0.49671060  0.73161466     0.26200
N2017       N  0.60741456  0.10269213  0.78436992    -0.36600
N2018       N  0.58956430  0.13353610  0.75110961    -0.57100
N2019       N  0.61803116  0.11781056  0.71401611    -0.36500
N2020       N  0.63433577  0.08509445  0.74770957    -0.57100
C2021       C  0.58465318  0.10390224  0.79568965     0.27000
C2022       C  0.60997874  0.07963218  0.79406255     0.27000
C2023       C  0.60246582  0.12809692  0.70134021     0.27000
C2024       C  0.62578111  0.10169442  0.69950210     0.27000
C2025       C  0.58354968  0.14343120  0.77111901     0.35700
C2026       C  0.58760510  0.15053601  0.73378961     0.35700
C2027       C  0.64600149  0.07809391  0.76627601     0.35700
C2028       C  0.64878444  0.08283190  0.72879238     0.35700
C2029       C  0.57222063  0.08089666  0.81241854    -0.21800
C2030       C  0.58834619  0.06567810  0.81146885    -0.21800
C2031       C  0.60232924  0.12025374  0.67822807    -0.21800
C2032       C  0.61681341  0.10352444  0.67709932    -0.21800
C2033       C  0.57915841  0.16796705  0.76661500    -0.22900
C2034       C  0.58070616  0.17178083  0.74289508    -0.22900
C2035       C  0.66874898  0.07234136  0.75914536    -0.22900
C2036       C  0.66965670  0.07415964  0.73536464    -0.22900
C2037       C  0.57650441  0.12669196  0.79222781    -0.18200
C2038       C  0.63323923  0.07293052  0.78883784    -0.18200
C2039       C  0.64141858  0.08600181  0.70567034    -0.18200
C2040       C  0.58787771  0.14392049  0.70996668    -0.18200
H2041       H  0.55371405  0.07581214  0.82430067     0.14700
H2042       H  0.58486868  0.04678270  0.82253203     0.14700
H2043       H  0.59259226  0.12575694  0.66358562     0.14700
H2044       H  0.62035680  0.09392067  0.66142764     0.14700
H2045       H  0.57314559  0.18026512  0.77891656     0.13000
H2046       H  0.57649728  0.18790585  0.73359552     0.13000
H2047       H  0.68249088  0.06622656  0.76973249     0.13000
H2048       H  0.68403900  0.06945893  0.72432941     0.13000
H2049       H  0.62288831  0.11907914  0.77275625     0.26200
H2050       H  0.62411919  0.12256032  0.73134960     0.26200
N2051       N  0.99426153  0.39380413  0.78518063    -0.36600
N2052       N  0.95320084  0.38211681  0.74696508    -0.57100
N2053       N  0.00558496  0.40397209  0.71537037    -0.36500
N2054       N  0.54628354  0.41439533  0.75356667    -0.57100
C2055       C  0.96717004  0.37852189  0.79658123     0.27000
C2056       C  0.51621969  0.39692814  0.80022709     0.27000
C2057       C  0.98432584  0.40364093  0.70092290     0.27000
C2058       C  0.53320775  0.42045784  0.70470828     0.27000
C2059       C  0.93206472  0.37284761  0.76411821     0.35700
C2060       C  0.93821489  0.37773603  0.72665254     0.35700
C2061       C  0.56124678  0.41776161  0.77370732     0.35700
C2062       C  0.56678053  0.42094246  0.73632988     0.35700
C2063       C  0.97212742  0.37154421  0.81890359    -0.21800
C2064       C  0.50308717  0.38347118  0.82127540    -0.21800
C2065       C  0.99857877  0.42013909  0.68096594    -0.21800
C2066       C  0.52927546  0.43104146  0.68354069    -0.21800
C2067       C  0.90341537  0.36281463  0.75457686    -0.22900
C2068       C  0.90720134  0.36507731  0.73089210    -0.22900
C2069       C  0.59137754  0.42618398  0.76923095    -0.22900
C2070       C  0.59451898  0.42699757  0.74560581    -0.22900
C2071       C  0.93824046  0.37227359  0.78812120    -0.18200
C2072       C  0.54804411  0.41292491  0.79604466    -0.18200
C2073       C  0.56168265  0.42491664  0.71274207    -0.18200
C2074       C  0.95224820  0.38728654  0.70451116    -0.18200
H2075       H  0.95522843  0.35942054  0.83229590     0.14700
H2076       H  0.51466276  0.38239686  0.83672614     0.14700
H2077       H  0.98833415  0.42380156  0.66578707     0.14700
H2078       H  0.54660416  0.44484497  0.67090612     0.14700
H2079       H  0.88186840  0.35433831  0.76353173     0.13000
H2080       H  0.88920896  0.35893370  0.71827142     0.13000
H2081       H  0.60931427  0.43070492  0.78147295     0.13000
H2082       H  0.61531060  0.43240400  0.73651081     0.13000
H2083       H  0.99824457  0.40497437  0.76932047     0.26200
H2084       H  0.00095503  0.39037951  0.73010729     0.26200
C2085       C  0.98275805  0.16531273  0.60066874     0.02300
C2086       C  0.51513971  0.18233308  0.60129138     0.02300
C2087       C  0.53039633  0.17886426  0.62045323    -0.18200
C2088       C  0.51438691  0.15930845  0.63922632     0.02300
C2089       C  0.98186503  0.14222306  0.63835673     0.02300
C2090       C  0.96668925  0.14572683  0.61930562    -0.18200
H2091       H  0.94186351  0.13269141  0.61886709     0.04400
H2092       H  0.55521054  0.19148330  0.62062792     0.04400
C2093       C  0.68828925  0.01432213  0.60091137     0.02300
C2094       C  0.67658590  0.48237738  0.60374263     0.02300
C2095       C  0.66032211  0.46782851  0.62409757    -0.18200
C2096       C  0.65351465  0.48373251  0.64100853     0.02300
C2097       C  0.66342841  0.01539194  0.63702641     0.02300
C2098       C  0.68112296  0.03010629  0.61736574    -0.18200
H2099       H  0.68956711  0.05447413  0.61478272     0.04400
H2100       H  0.65214708  0.44350088  0.62643064     0.04400
C2101       C  0.80438305  0.32497823  0.89729232     0.02300
C2102       C  0.82480413  0.31358610  0.89743231     0.02300
C2103       C  0.84552728  0.32121257  0.87887350    -0.18200
C2104       C  0.84676324  0.34036481  0.86060335     0.02300
C2105       C  0.82670059  0.35231195  0.86090967     0.02300
C2106       C  0.80597995  0.34447946  0.87925665    -0.18200
H2107       H  0.79107645  0.35410055  0.87968315     0.04400
H2108       H  0.86083258  0.31207888  0.87860637     0.04400
C2109       C  0.83705304  0.32084899  0.59706572     0.02300
C2110       C  0.81269202  0.32621687  0.60086866     0.02300
C2111       C  0.81308393  0.34282026  0.62051687    -0.18200
C2112       C  0.83899374  0.35821754  0.63493380     0.02300
C2113       C  0.86390916  0.35308112  0.63074091     0.02300
C2114       C  0.86201269  0.33391103  0.61229069    -0.18200
H2115       H  0.88025142  0.32887621  0.60984982     0.04400
H2116       H  0.79321576  0.34489243  0.62389135     0.04400
C2117       C  0.66755457  0.48128392  0.90181138     0.02300
C2118       C  0.68540169  0.01344448  0.89910017     0.02300
C2119       C  0.68188862  0.02724202  0.87915440    -0.18200
C2120       C  0.65959193  0.01000866  0.86230922     0.02300
C2121       C  0.64011180  0.47770506  0.86596446     0.02300
C2122       C  0.64456053  0.46397410  0.88563157    -0.18200
H2123       H  0.62992524  0.43940428  0.88844415     0.04400
H2124       H  0.69653400  0.05193157  0.87696739     0.04400
C2125       C  0.98027192  0.16260293  0.90146334     0.02300
C2126       C  0.51253024  0.17937502  0.89945753     0.02300
C2127       C  0.52625483  0.17157120  0.88148716    -0.18200
C2128       C  0.50894159  0.14755507  0.86559187     0.02300
C2129       C  0.97651615  0.13146527  0.86756381     0.02300
C2130       C  0.96290820  0.13900362  0.88560401    -0.18200
H2131       H  0.93813471  0.12669033  0.88700539     0.04400
H2132       H  0.55094594  0.18461760  0.87981665     0.04400
Zn2133     Zn  0.66785797  0.33028554  0.53403925     1.49700
Zn2134     Zn  0.66685748  0.36755023  0.48919839     1.49400
Zn2135     Zn  0.70603464  0.33351109  0.48810776     1.49100
Zn2136     Zn  0.63284464  0.29264386  0.48945657     1.49500
O2137       O  0.66853014  0.33122670  0.50007901    -1.84100
O2138       O  0.67358089  0.37021997  0.54688326    -0.74700
O2139       O  0.70398622  0.39533865  0.46911309    -0.74500
O2140       O  0.73043977  0.33065211  0.51483967    -0.74000
O2141       O  0.66836942  0.39438691  0.51651717    -0.74700
O2142       O  0.70244755  0.32518929  0.54612842    -0.74300
O2143       O  0.73254779  0.37345625  0.46981015    -0.74900
O2144       O  0.64542728  0.26678808  0.47076173    -0.74300
O2145       O  0.62866183  0.35356518  0.46932312    -0.75000
O2146       O  0.69570755  0.29702073  0.46703898    -0.74400
O2147       O  0.60804435  0.30266482  0.46815071    -0.74900
O2148       O  0.60419146  0.26711627  0.51580064    -0.74800
O2149       O  0.62764634  0.29537807  0.54677776    -0.74600
C2150       C  0.67280131  0.39310685  0.53821815     0.77200
C2151       C  0.72832515  0.39533648  0.46343930     0.77700
C2152       C  0.72594104  0.32676473  0.53666345     0.76600
C2153       C  0.67092305  0.27210080  0.46234261     0.77000
C2154       C  0.60817736  0.32702222  0.46204147     0.78200
C2155       C  0.60483677  0.27196740  0.53756825     0.77200
Zn2156     Zn  0.66297070  0.33106895  0.96761065     1.49700
Zn2157     Zn  0.70142456  0.33223271  0.01252938     1.49400
Zn2158     Zn  0.66376402  0.36676531  0.01368020     1.49100
Zn2159     Zn  0.62762956  0.29211778  0.01212691     1.49500
O2160       O  0.66389995  0.33047574  0.00152902    -1.84100
O2161       O  0.69808032  0.32732030  0.95481422    -0.74700
O2162       O  0.72779371  0.37014437  0.03266956    -0.74500
O2163       O  0.66642268  0.39534831  0.98800510    -0.74000
O2164       O  0.72589349  0.33049516  0.98560544    -0.74700
O2165       O  0.66719350  0.37107984  0.95609007    -0.74300
O2166       O  0.69956782  0.39214761  0.03510058    -0.74900
O2167       O  0.60010795  0.30225690  0.03089954    -0.74300
O2168       O  0.69090839  0.29494686  0.03181399    -0.75000
O2169       O  0.62485113  0.35339618  0.03126324    -0.74400
O2170       O  0.64018037  0.26667704  0.03185358    -0.74900
O2171       O  0.60144282  0.26592890  0.98515365    -0.74800
O2172       O  0.62335154  0.29544641  0.95454186    -0.74600
C2173       C  0.72134134  0.32780281  0.96378496     0.77200
C2174       C  0.72338436  0.39121869  0.04069822     0.77700
C2175       C  0.66776445  0.39400760  0.96601907     0.76600
C2176       C  0.60182538  0.32745896  0.03685078     0.77000
C2177       C  0.66625276  0.27105116  0.03816075     0.78200
C2178       C  0.60162305  0.27080010  0.96345463     0.77200
N2179       N  0.50188749  0.11436585  0.28615496    -0.36600
N2180       N  0.95446665  0.09713918  0.25123922    -0.57100
N2181       N  0.49765662  0.10825033  0.21513021    -0.36500
N2182       N  0.54532409  0.12525645  0.24968986    -0.57100
C2183       C  0.97577461  0.09847232  0.29888942     0.27000
C2184       C  0.52505491  0.11506796  0.29846425     0.27000
C2185       C  0.97072247  0.09118875  0.20379257     0.27000
C2186       C  0.51953653  0.10722038  0.20248286     0.27000
C2187       C  0.94015535  0.09953245  0.27010818     0.35700
C2188       C  0.93809472  0.09674108  0.23264043     0.35700
C2189       C  0.56493078  0.13724480  0.26778371     0.35700
C2190       C  0.56245640  0.13482943  0.23016155     0.35700
C2191       C  0.98255178  0.08901696  0.31948974    -0.21800
C2192       C  0.51363361  0.10034292  0.31957471    -0.21800
C2193       C  0.97568498  0.07906440  0.18378908    -0.21800
C2194       C  0.50657174  0.08974329  0.18268041    -0.21800
C2195       C  0.91494926  0.10160045  0.26345348    -0.22900
C2196       C  0.91368359  0.09988625  0.23960077    -0.22900
C2197       C  0.59472547  0.15439186  0.25965768    -0.22900
C2198       C  0.59307143  0.15329258  0.23586131    -0.22900
C2199       C  0.94663650  0.09422920  0.29289229    -0.18200
C2200       C  0.55625893  0.12962631  0.29129866    -0.18200
C2201       C  0.55109662  0.12384917  0.20761195    -0.18200
C2202       C  0.94251715  0.08853413  0.21022745    -0.18200
H2203       H  0.96701626  0.07598073  0.33338598     0.14700
H2204       H  0.52601558  0.09779397  0.33382583     0.14700
H2205       H  0.95906823  0.06468145  0.17093721     0.14700
H2206       H  0.51792773  0.08530662  0.16863392     0.14700
H2207       H  0.89836937  0.10261576  0.27467853     0.13000
H2208       H  0.89594332  0.09923155  0.22873603     0.13000
H2209       H  0.61565281  0.16588460  0.26963334     0.13000
H2210       H  0.61241156  0.16392222  0.22416483     0.13000
H2211       H  0.50426656  0.12658263  0.27096058     0.26200
H2212       H  0.50159140  0.12288326  0.22911375     0.26200
N2213       N  0.90919568  0.40669651  0.28715386    -0.36600
N2214       N  0.92693530  0.37668941  0.25251189    -0.57100
N2215       N  0.90680133  0.40246075  0.21622325    -0.36500
N2216       N  0.89066701  0.43406575  0.25078388    -0.57100
C2217       C  0.92418157  0.39678007  0.30088511     0.27000
C2218       C  0.90272634  0.42500032  0.30023336     0.27000
C2219       C  0.92263785  0.39219596  0.20389231     0.27000
C2220       C  0.90413084  0.42306878  0.20273526     0.27000
C2221       C  0.93143593  0.36420934  0.27179132     0.35700
C2222       C  0.92749367  0.36003736  0.23434326     0.35700
C2223       C  0.87951118  0.44177209  0.26932200     0.35700
C2224       C  0.87961029  0.44061800  0.23158537     0.35700
C2225       C  0.92663669  0.40845117  0.32308405    -0.21800
C2226       C  0.91302501  0.42597926  0.32272007    -0.21800
C2227       C  0.93028495  0.40667879  0.18246516    -0.21800
C2228       C  0.91821220  0.42563723  0.18154446    -0.21800
C2229       C  0.93528570  0.33973044  0.26573918    -0.22900
C2230       C  0.93166026  0.33639059  0.24218508    -0.22900
C2231       C  0.86188685  0.45399413  0.26180962    -0.22900
C2232       C  0.86175035  0.45300480  0.23798904    -0.22900
C2233       C  0.93361335  0.37560393  0.29459971    -0.18200
C2234       C  0.88606905  0.43922202  0.29291156    -0.18200
C2235       C  0.88719987  0.43759254  0.20840688    -0.18200
C2236       C  0.92843238  0.36851272  0.21081223    -0.18200
H2237       H  0.93615714  0.40398387  0.33837373     0.14700
H2238       H  0.91049289  0.43740338  0.33769318     0.14700
H2239       H  0.94247975  0.40329644  0.16854265     0.14700
H2240       H  0.91947820  0.43928641  0.16665864     0.14700
H2241       H  0.94037490  0.32567340  0.27692213     0.13000
H2242       H  0.93322358  0.31920885  0.23198576     0.13000
H2243       H  0.85037354  0.46283516  0.27233300     0.13000
H2244       H  0.84993719  0.46071993  0.22670124     0.13000
H2245       H  0.90101622  0.39893023  0.27059375     0.26200
H2246       H  0.89510881  0.39299532  0.23164258     0.26200
C2247       C  0.82372336  0.01860732  0.39673523     0.02300
C2248       C  0.81452861  0.48698365  0.39824631     0.02300
C2249       C  0.82593995  0.47464049  0.38188198    -0.18200
C2250       C  0.84571689  0.49271382  0.36384885     0.02300
C2251       C  0.85346664  0.02401673  0.36158830     0.02300
C2252       C  0.84279872  0.03648114  0.37840140    -0.18200
H2253       H  0.84973443  0.06067355  0.37740213     0.04400
H2254       H  0.81938783  0.45058072  0.38326518     0.04400
N2255       N  0.61964948  0.99115793  0.28516732    -0.36600
N2256       N  0.64003933  0.04463948  0.25500543    -0.57100
N2257       N  0.61059701  0.00378764  0.21606739    -0.36500
N2258       N  0.58945821  0.45052833  0.24572596    -0.57100
C2259       C  0.62877759  0.01373988  0.30139498     0.27000
C2260       C  0.60181114  0.46367241  0.29599613     0.27000
C2261       C  0.61706616  0.03117161  0.20690294     0.27000
C2262       C  0.58975916  0.48145347  0.20199061     0.27000
C2263       C  0.65379248  0.05967963  0.27483758     0.35700
C2264       C  0.65204980  0.06550453  0.23753063     0.35700
C2265       C  0.58775142  0.42972451  0.26138723     0.35700
C2266       C  0.58232588  0.43628419  0.22488055     0.35700
C2267       C  0.61820055  0.99996786  0.32293713    -0.21800
C2268       C  0.60010514  0.46900297  0.31938270    -0.21800
C2269       C  0.59988200  0.02621263  0.18696805    -0.21800
C2270       C  0.58307562  0.49499701  0.18364950    -0.21800
C2271       C  0.67407521  0.09051972  0.26969245    -0.22900
C2272       C  0.67418539  0.09369250  0.24611241    -0.22900
C2273       C  0.58014889  0.40230155  0.25040759    -0.22900
C2274       C  0.57582885  0.40613543  0.22742432    -0.22900
C2275       C  0.64625090  0.04635477  0.29747134    -0.18200
C2276       C  0.58836744  0.43379851  0.28567455    -0.18200
C2277       C  0.57930702  0.44958039  0.20409423    -0.18200
C2278       C  0.64034913  0.06048253  0.21463889    -0.18200
H2279       H  0.62279067  0.01062983  0.33985085     0.14700
H2280       H  0.58752848  0.45252527  0.33291750     0.14700
H2281       H  0.60028260  0.04333909  0.17538892     0.14700
H2282       H  0.56858156  0.48407029  0.16879624     0.14700
H2283       H  0.68714389  0.10954572  0.28126184     0.13000
H2284       H  0.68753511  0.11501160  0.23664632     0.13000
H2285       H  0.57632008  0.38115379  0.25836763     0.13000
H2286       H  0.56811304  0.38837112  0.21433951     0.13000
H2287       H  0.62700153  0.99413911  0.26806225     0.26200
H2288       H  0.62300350  0.00073673  0.22908805     0.26200
C2289       C  0.82445746  0.01571922  0.10290392     0.02300
C2290       C  0.81586329  0.48421446  0.10157170     0.02300
C2291       C  0.82704836  0.47201599  0.11833457    -0.18200
C2292       C  0.84693603  0.49031450  0.13616734     0.02300
C2293       C  0.85472333  0.02166831  0.13795003     0.02300
C2294       C  0.84308132  0.03359892  0.12142859    -0.18200
H2295       H  0.84921296  0.05752617  0.12271528     0.04400
H2296       H  0.82024271  0.44785817  0.11740864     0.04400
C2297       C  0.66728449  0.17873222  0.40108628     0.02300
C2298       C  0.68749164  0.16719838  0.40151871     0.02300
C2299       C  0.68423595  0.14540348  0.38497793    -0.18200
C2300       C  0.66236538  0.13579369  0.36724106     0.02300
C2301       C  0.64338412  0.14918905  0.36546390     0.02300
C2302       C  0.64553236  0.16958319  0.38314297    -0.18200
H2303       H  0.63072772  0.17929280  0.38252636     0.04400
H2304       H  0.69891104  0.13555169  0.38606258     0.04400
C2305       C  0.69019940  0.17345431  0.10341081     0.02300
C2306       C  0.66685746  0.18050499  0.09965945     0.02300
C2307       C  0.64289093  0.17035839  0.11570128    -0.18200
C2308       C  0.64192044  0.15420134  0.13583056     0.02300
C2309       C  0.66548215  0.14724499  0.13986700     0.02300
C2310       C  0.68950253  0.15757325  0.12370572    -0.18200
H2311       H  0.70741585  0.15221118  0.12656111     0.04400
H2312       H  0.62508741  0.17590108  0.11279248     0.04400
C2313       C  0.98995933  0.30932648  0.39730711     0.02300
C2314       C  0.52024592  0.31620794  0.39359906     0.02300
C2315       C  0.53525556  0.33036421  0.37283813    -0.18200
C2316       C  0.52290332  0.34251814  0.35711148     0.02300
C2317       C  0.99282964  0.33712219  0.36158310     0.02300
C2318       C  0.97655882  0.31956702  0.38105412    -0.18200
H2319       H  0.95327335  0.31438304  0.38391185     0.04400
H2320       H  0.55779577  0.33366990  0.36974156     0.04400
C2321       C  0.98191492  0.31398503  0.09841399     0.02300
C2322       C  0.51350809  0.33504752  0.09526840     0.02300
C2323       C  0.52922513  0.35812150  0.11184344    -0.18200
C2324       C  0.51452991  0.36081561  0.13152615     0.02300
C2325       C  0.98328207  0.33795856  0.13572878     0.02300
C2326       C  0.96753744  0.31512754  0.11885814    -0.18200
H2327       H  0.94358999  0.29810563  0.12147827    -0.06200
H2328       H  0.55339890  0.37435254  0.10929980     0.04400
C2329       C  0.54225861  0.36174919  0.33703144    -0.06100
C2330       C  0.52862657  0.35842073  0.31514328    -0.17200
C2331       C  0.54225859  0.38170962  0.29836199     0.11100
C2332       C  0.57313336  0.40575612  0.30119833    -0.06000
C2333       C  0.58906060  0.40466545  0.32080086    -0.17200
C2334       C  0.57344737  0.38535231  0.33958125     0.11200
S2335       S  0.51739216  0.38097842  0.27563233    -0.32200
S2336       S  0.59373609  0.39587537  0.36688016    -0.32200
H2337       H  0.56871016  0.39225293  0.37998434     0.29200
H2338       H  0.52891275  0.41293920  0.27585983     0.29200
H2339       H  0.50554573  0.33960959  0.31214873     0.19800
H2340       H  0.61293917  0.42216813  0.32296578     0.19800
C2341       C  0.53298138  0.38715738  0.14748233    -0.06100
C2342       C  0.56154064  0.39230454  0.15519600    -0.17200
C2343       C  0.57820903  0.41442125  0.17210735     0.11100
C2344       C  0.56464201  0.42931810  0.18358288    -0.06000
C2345       C  0.53668724  0.42504747  0.17522837    -0.17200
C2346       C  0.52243959  0.40644719  0.15590682     0.11200
S2347       S  0.61630713  0.42208397  0.17852576    -0.32200
S2348       S  0.99220537  0.40974137  0.14189397    -0.32200
H2349       H  0.99491442  0.39877009  0.12011096     0.29200
H2350       H  0.62794641  0.45259458  0.18603852     0.29200
H2351       H  0.57082383  0.37876048  0.14823301     0.19800
H2352       H  0.52660061  0.43732679  0.18317053     0.19800
C2353       C  0.65304838  0.06756433  0.31790050    -0.06100
C2354       C  0.62866829  0.06299239  0.33236354    -0.17200
C2355       C  0.63405302  0.08193396  0.35153889     0.11100
C2356       C  0.66003528  0.11145728  0.35139041    -0.06000
C2357       C  0.68532285  0.11589336  0.33821699    -0.17200
C2358       C  0.68267733  0.09251672  0.32333194     0.11200
S2359       S  0.61024202  0.06713809  0.37717369    -0.32200
S2360       S  0.71750821  0.09502277  0.31298435    -0.32200
H2361       H  0.70401719  0.06385975  0.30659812     0.29200
H2362       H  0.59008290  0.03772678  0.36802438     0.29200
H2363       H  0.60581574  0.04367892  0.32960244     0.19800
H2364       H  0.70732405  0.13673435  0.34042131     0.19800
C2365       C  0.66471251  0.12800233  0.16005314    -0.06100
C2366       C  0.65905882  0.13488584  0.18255579    -0.17200
C2367       C  0.65025818  0.11330713  0.20060531     0.11100
C2368       C  0.65226462  0.08650242  0.19746113    -0.06000
C2369       C  0.66272662  0.08220686  0.17600617    -0.17200
C2370       C  0.66685287  0.10120980  0.15701474     0.11200
S2371       S  0.63376856  0.11996433  0.22604400    -0.32200
S2372       S  0.67125349  0.08764589  0.12912683    -0.32200
H2373       H  0.65132689  0.09484284  0.11739034     0.29200
H2374       H  0.61208155  0.08882133  0.23020114     0.29200
H2375       H  0.65816780  0.15567080  0.18545611     0.19800
H2376       H  0.66439128  0.06179130  0.17333167     0.19800
C2377       C  0.97685563  0.34829337  0.34622221    -0.06100
C2378       C  0.94822705  0.32643568  0.33703430    -0.17200
C2379       C  0.93265921  0.33500066  0.32152411     0.11100
C2380       C  0.94730612  0.36552687  0.31302972    -0.06000
C2381       C  0.97556361  0.38754620  0.32261991    -0.17200
C2382       C  0.98939105  0.37965752  0.34017470     0.11200
S2383       S  0.89426764  0.30596130  0.31337223    -0.32200
S2384       S  0.52242045  0.41079569  0.35447003    -0.32200
H2385       H  0.51878742  0.39497642  0.37542519     0.29200
H2386       H  0.88390561  0.32644356  0.30824953     0.29200
H2387       H  0.93775392  0.30246963  0.34215165     0.19800
H2388       H  0.98636816  0.41132054  0.31692183     0.19800
C2389       C  0.93896470  0.35430847  0.19286061    -0.06100
C2390       C  0.96656492  0.35451798  0.19634364    -0.17200
C2391       C  0.97843006  0.34377661  0.17929057     0.11100
C2392       C  0.96600704  0.33832897  0.15666776    -0.06000
C2393       C  0.93726361  0.33583682  0.15362418    -0.17200
C2394       C  0.92284646  0.34188255  0.17187115     0.11200
S2395       S  0.50847018  0.33640547  0.18778792    -0.32200
S2396       S  0.88435630  0.33403530  0.16706952    -0.32200
H2397       H  0.87580223  0.32963680  0.19059944     0.29200
H2398       H  0.50458484  0.31691141  0.16901559     0.29200
H2399       H  0.97889028  0.36274924  0.21256113     0.19800
H2400       H  0.92625474  0.33000238  0.13678804     0.19800
C2401       C  0.87521472  0.45236287  0.31128298    -0.06100
C2402       C  0.89694075  0.47854809  0.32349010    -0.17200
C2403       C  0.88840677  0.49017196  0.34226607     0.11100
C2404       C  0.85699181  0.47785809  0.34730368    -0.06000
C2405       C  0.83530585  0.45135799  0.33532679    -0.17200
C2406       C  0.84410543  0.43806235  0.31789432     0.11200
S2407       S  0.91875801  0.01904528  0.35996406    -0.32200
S2408       S  0.81444648  0.40315202  0.30461262    -0.32200
H2409       H  0.83293987  0.39059899  0.29927276     0.29200
H2410       H  0.90112013  0.01328618  0.38016574     0.29200
H2411       H  0.92098754  0.48891752  0.31916050     0.19800
H2412       H  0.81119534  0.44121519  0.33932905     0.19800
C2413       C  0.85820027  0.47563251  0.15308379    -0.06100
C2414       C  0.83661964  0.44943001  0.16540500    -0.17200
C2415       C  0.84566158  0.43583119  0.18249969     0.11100
C2416       C  0.87680238  0.45006283  0.18906037    -0.06000
C2417       C  0.89842220  0.47617699  0.17668402    -0.17200
C2418       C  0.88965886  0.48765074  0.15784750     0.11200
S2419       S  0.81635867  0.40031892  0.19532236    -0.32200
S2420       S  0.91964280  0.01590381  0.13959041    -0.32200
H2421       H  0.90184650  0.00805678  0.11928765     0.29200
H2422       H  0.83524779  0.38785439  0.19946581     0.29200
H2423       H  0.81247307  0.43931668  0.16156718     0.19800
H2424       H  0.92248068  0.48678787  0.18103276     0.19800
C2425       C  0.87414216  0.04480836  0.34284889    -0.06100
C2426       C  0.90027824  0.07286844  0.34915647    -0.17200
C2427       C  0.92282532  0.09102135  0.33282838     0.11100
C2428       C  0.92075345  0.07975791  0.31000419    -0.06000
C2429       C  0.89354560  0.05293676  0.30337821    -0.17200
C2430       C  0.86958596  0.03670741  0.31908969     0.11200
S2431       S  0.95364999  0.12802288  0.34229802    -0.32200
S2432       S  0.83356699  0.50701426  0.30742409    -0.32200
H2433       H  0.81546569  0.50654810  0.32607860     0.29200
H2434       H  0.96080858  0.14167403  0.32016285     0.29200
H2435       H  0.90358252  0.08038895  0.36707336     0.19800
H2436       H  0.89077881  0.04457396  0.28570923     0.19800
C2437       C  0.91659142  0.07453194  0.19327714    -0.06100
C2438       C  0.92127045  0.08737810  0.17095407    -0.17200
C2439       C  0.90155425  0.07109558  0.15259575     0.11100
C2440       C  0.87476394  0.04224503  0.15695658    -0.06000
C2441       C  0.86790239  0.03179855  0.18000506    -0.17200
C2442       C  0.88907272  0.04662269  0.19786771     0.11200
S2443       S  0.91400809  0.08723014  0.12395529    -0.32200
S2444       S  0.88066537  0.52717358  0.22547013    -0.32200
H2445       H  0.91031356  0.03219872  0.22893219     0.29200
H2446       H  0.90386337  0.05901254  0.11256748     0.29200
H2447       H  0.94212931  0.10893011  0.16731566     0.19800
H2448       H  0.84695751  0.51042094  0.18380953     0.19800
C2449       C  0.58034684  0.13452566  0.30870671    -0.06100
C2450       C  0.60303141  0.16456364  0.31509481    -0.17200
C2451       C  0.62526461  0.16970474  0.33197045     0.11100
C2452       C  0.62284905  0.14456514  0.34496866    -0.06000
C2453       C  0.59888523  0.11500425  0.33912525    -0.17200
C2454       C  0.58026452  0.10954549  0.31979391     0.11200
S2455       S  0.65597955  0.20886665  0.33604742    -0.32200
S2456       S  0.55666574  0.07002506  0.31044467    -0.32200
H2457       H  0.55488438  0.07692786  0.28705395     0.29200
H2458       H  0.67806344  0.20113935  0.34238977     0.29200
H2459       H  0.60391051  0.18411750  0.30645520     0.19800
H2460       H  0.59348633  0.09568982  0.34977151     0.19800
C2461       C  0.61666103  0.14606005  0.15267733    -0.06100
C2462       C  0.59833878  0.11526778  0.15991207    -0.17200
C2463       C  0.57802831  0.10754632  0.17854888     0.11100
C2464       C  0.57317574  0.13040171  0.18844605    -0.06000
C2465       C  0.58946272  0.16056453  0.17986004    -0.17200
C2466       C  0.61186060  0.16890851  0.16281021     0.11200
S2467       S  0.55997869  0.06855388  0.18938595    -0.32200
S2468       S  0.63455453  0.20939267  0.15590566    -0.32200
H2469       H  0.66241624  0.20981274  0.15389913     0.29200
H2470       H  0.55659230  0.07553513  0.21240198     0.29200
H2471       H  0.60156061  0.09751758  0.15214132     0.19800
H2472       H  0.58571344  0.17811137  0.18738151     0.19800
C2473       C  0.66796460  0.24772241  0.05296772    -0.06100
C2474       C  0.64434259  0.21676113  0.05146564    -0.17200
C2475       C  0.64445067  0.19378410  0.06514383     0.11100
C2476       C  0.66866094  0.20172714  0.08096888    -0.06000
C2477       C  0.69292192  0.23231255  0.08177796    -0.17200
C2478       C  0.69271032  0.25535870  0.06832463     0.11200
S2479       S  0.61280999  0.15489681  0.06166378    -0.32200
S2480       S  0.72349545  0.29426929  0.07324340    -0.32200
H2481       H  0.70416021  0.30670593  0.07460193     0.29200
H2482       H  0.62698204  0.13971568  0.07141123     0.29200
H2483       H  0.62554385  0.21032079  0.03950898     0.19800
H2484       H  0.71124445  0.23872489  0.09419493     0.19800
C2485       C  0.57660322  0.32723935  0.05021408    -0.06100
C2486       C  0.57407509  0.35378453  0.04936212    -0.17200
C2487       C  0.55232096  0.35637520  0.06248120     0.11100
C2488       C  0.53177433  0.33147742  0.07671830    -0.06000
C2489       C  0.53304522  0.30426042  0.07660344    -0.17200
C2490       C  0.55540545  0.30200958  0.06394778     0.11200
S2491       S  0.55331755  0.39274548  0.06064661    -0.32200
S2492       S  0.55716531  0.26744871  0.06799416    -0.32200
H2493       H  0.58881883  0.28344396  0.07256962     0.29200
H2494       H  0.52562392  0.38404102  0.07190618     0.29200
H2495       H  0.58967741  0.37318192  0.03867074     0.19800
H2496       H  0.51805427  0.28541998  0.08797435     0.19800
C2497       C  0.79343137  0.46267708  0.08417366    -0.06100
C2498       C  0.76317955  0.45646374  0.08526901    -0.17200
C2499       C  0.73979852  0.43283811  0.07205742     0.11100
C2500       C  0.74673256  0.41542464  0.05640643    -0.06000
C2501       C  0.77718494  0.42192323  0.05527511    -0.17200
C2502       C  0.80041079  0.44514005  0.06886592     0.11200
S2503       S  0.70139787  0.42472806  0.07754866    -0.32200
S2504       S  0.83851517  0.45119120  0.06579202    -0.32200
H2505       H  0.85428598  0.48230816  0.07255063     0.29200
H2506       H  0.68868668  0.39255428  0.07825071     0.29200
H2507       H  0.75737681  0.46903002  0.09751589     0.19800
H2508       H  0.78314066  0.40903437  0.04347643     0.19800
C2509       C  0.67139367  0.24851458  0.44693719    -0.06100
C2510       C  0.64870292  0.21737212  0.45000508    -0.17200
C2511       C  0.64742926  0.19402879  0.43594200     0.11100
C2512       C  0.66943513  0.20170510  0.41825935    -0.06000
C2513       C  0.69241587  0.23258886  0.41534750    -0.17200
C2514       C  0.69339790  0.25602291  0.42912572     0.11200
S2515       S  0.61674761  0.15509756  0.44133487    -0.32200
S2516       S  0.72184966  0.29505303  0.42172830    -0.32200
H2517       H  0.70148766  0.30625350  0.42319955     0.29200
H2518       H  0.62938702  0.13949297  0.42995121     0.29200
H2519       H  0.63169102  0.21105324  0.46353258     0.19800
H2520       H  0.70891034  0.23868832  0.40145541     0.19800
C2521       C  0.58422593  0.32373201  0.44552744    -0.06100
C2522       C  0.57340489  0.29981404  0.42904322    -0.17200
C2523       C  0.55142277  0.29557773  0.41247776     0.11100
C2524       C  0.53919654  0.31524100  0.41266368    -0.06000
C2525       C  0.54934340  0.33864448  0.42942384    -0.17200
C2526       C  0.57177208  0.34326300  0.44577711     0.11200
S2527       S  0.54096282  0.26525425  0.39140276    -0.32200
S2528       S  0.58384765  0.37390796  0.46681239    -0.32200
H2529       H  0.56287089  0.38314659  0.46053175     0.29200
H2530       H  0.01748215  0.26691584  0.37997986     0.29200
H2531       H  0.58282137  0.28471295  0.42860513     0.19800
H2532       H  0.54056281  0.35424690  0.42899003     0.19800
C2533       C  0.79262605  0.46583130  0.41619918    -0.06100
C2534       C  0.80334738  0.45393243  0.43346956    -0.17200
C2535       C  0.78334557  0.43193776  0.44961280     0.11100
C2536       C  0.75147121  0.42086705  0.44844505    -0.06000
C2537       C  0.74099929  0.43358155  0.43157742    -0.17200
C2538       C  0.76092397  0.45523795  0.41529416     0.11200
S2539       S  0.80017469  0.41966360  0.47158420    -0.32200
S2540       S  0.74392119  0.46664242  0.39287038    -0.32200
H2541       H  0.76397890  0.46890480  0.37511946     0.29200
H2542       H  0.78050272  0.41811896  0.48943097     0.29200
H2543       H  0.82758522  0.46182300  0.43433489     0.19800
H2544       H  0.71672889  0.42537597  0.43024257     0.19800
C2545       C  0.57649901  0.24764020  0.94802478    -0.06100
C2546       C  0.57675863  0.25499881  0.92438123    -0.17200
C2547       C  0.55511972  0.23409074  0.90859335     0.11100
C2548       C  0.53278382  0.20422359  0.91609325    -0.06000
C2549       C  0.53198466  0.19689977  0.93967690    -0.17200
C2550       C  0.55276971  0.21825780  0.95571706     0.11200
S2551       S  0.55758182  0.24717029  0.87906115    -0.32200
S2552       S  0.54754530  0.20591801  0.98554207    -0.32200
H2553       H  0.54527118  0.23117652  0.99334967     0.29200
H2554       H  0.52671397  0.22728574  0.87333823     0.29200
H2555       H  0.59403362  0.27739350  0.91795189     0.19800
H2556       H  0.51536014  0.17401196  0.94566287     0.19800
C2557       C  0.67316597  0.46436115  0.92028091    -0.06100
C2558       C  0.65703485  0.45835771  0.94121737    -0.17200
C2559       C  0.65527748  0.43607529  0.95678646     0.11100
C2560       C  0.67030878  0.41954442  0.95144561    -0.06000
C2561       C  0.68773354  0.42689878  0.93101809    -0.17200
C2562       C  0.68939754  0.44902200  0.91547556     0.11200
S2563       S  0.63130865  0.42808040  0.98197477    -0.32200
S2564       S  0.71113235  0.45494270  0.88917442    -0.32200
H2565       H  0.71353820  0.48271251  0.88205878     0.29200
H2566       H  0.61688966  0.39584337  0.97986599     0.29200
H2567       H  0.64405440  0.46962236  0.94472702     0.19800
H2568       H  0.69977681  0.41484084  0.92685787     0.19800
C2569       C  0.78957278  0.32019292  0.58268314    -0.06100
C2570       C  0.80014202  0.33741555  0.56213148    -0.17200
C2571       C  0.78012509  0.33992997  0.54679984     0.11100
C2572       C  0.74833766  0.32397163  0.55156181    -0.06000
C2573       C  0.73761772  0.30528983  0.57150315    -0.17200
C2574       C  0.75776687  0.30321552  0.58705319     0.11200
S2575       S  0.79716832  0.36642110  0.52290996    -0.32200
S2576       S  0.74136032  0.27912451  0.61234100    -0.32200
H2577       H  0.76720237  0.27765546  0.61906599     0.29200
H2578       H  0.77959899  0.38056378  0.52627158     0.29200
H2579       H  0.82453057  0.35112544  0.55892181     0.19800
H2580       H  0.71330130  0.29248119  0.57521529     0.19800
C2581       C  0.78220364  0.31907665  0.91616174    -0.06100
C2582       C  0.79346241  0.33360962  0.93759938    -0.17200
C2583       C  0.77436720  0.33671520  0.95359954     0.11100
C2584       C  0.74293370  0.32440868  0.94832412    -0.06000
C2585       C  0.73147115  0.30813436  0.92743179    -0.17200
C2586       C  0.75058548  0.30521203  0.91146203     0.11200
S2587       S  0.79233617  0.35908490  0.97926726    -0.32200
S2588       S  0.73337883  0.28452965  0.88494879    -0.32200
H2589       H  0.75636092  0.27784190  0.87930273     0.29200
H2590       H  0.77843582  0.37710390  0.97726630     0.29200
H2591       H  0.81777756  0.34473808  0.94113978     0.19800
H2592       H  0.70737175  0.29781196  0.92331221     0.19800
C2593       C  0.67682118  0.41851401  0.55384132    -0.06100
C2594       C  0.66002028  0.43321431  0.54942371    -0.17200
C2595       C  0.66019401  0.45468748  0.56505515     0.11100
C2596       C  0.67843428  0.46273446  0.58530381    -0.06000
C2597       C  0.69596632  0.44883852  0.58938512    -0.17200
C2598       C  0.69574565  0.42731102  0.57384250     0.11200
S2599       S  0.63504497  0.46938227  0.55891192    -0.32200
S2600       S  0.72073825  0.41255810  0.58038330    -0.32200
H2601       H  0.72905790  0.41213544  0.55714781     0.29200
H2602       H  0.62665165  0.97005693  0.58206958     0.29200
H2603       H  0.64533203  0.42673373  0.53429577     0.19800
H2604       H  0.70980588  0.45466964  0.60495736     0.19800
C2605       C  0.57892275  0.24959569  0.55251430    -0.06100
C2606       C  0.56415475  0.21799921  0.54712529    -0.17200
C2607       C  0.54254617  0.19557532  0.56221802     0.11100
C2608       C  0.53433166  0.20468074  0.58290224    -0.06000
C2609       C  0.54790195  0.23625611  0.58772800    -0.17200
C2610       C  0.56969749  0.25867986  0.57278782     0.11200
S2611       S  0.52780073  0.15578859  0.55472686    -0.32200
S2612       S  0.58439777  0.29845433  0.58049872    -0.32200
H2613       H  0.58591257  0.30861985  0.55752111     0.29200
H2614       H  0.52785816  0.14580330  0.57749933     0.29200
H2615       H  0.57076924  0.21054016  0.53167746     0.19800
H2616       H  0.54179739  0.24349615  0.60355103     0.19800
C2617       C  0.91357201  0.36463352  0.80578411    -0.06100
C2618       C  0.88699041  0.33527691  0.80601441    -0.17200
C2619       C  0.86444500  0.32686301  0.82323460     0.11100
C2620       C  0.86928592  0.34759989  0.84155128    -0.06000
C2621       C  0.89693260  0.37579988  0.84227068    -0.17200
C2622       C  0.91796948  0.38532921  0.82403815     0.11200
S2623       S  0.83092241  0.28887863  0.82110484    -0.32200
S2624       S  0.95019269  0.42420126  0.82531349    -0.32200
H2625       H  0.95385070  0.42846142  0.80115842     0.29200
H2626       H  0.81234753  0.29236592  0.83734936     0.29200
H2627       H  0.88379511  0.31873857  0.79268344     0.19800
H2628       H  0.90205491  0.39088194  0.85705206     0.19800
C2629       C  0.56871495  0.42672786  0.81629342    -0.06100
C2630       C  0.58729110  0.41504995  0.82344492    -0.17200
C2631       C  0.61069550  0.43091466  0.83965548     0.11100
C2632       C  0.61420014  0.45800301  0.85022575    -0.06000
C2633       C  0.59293391  0.46718859  0.84512896    -0.17200
C2634       C  0.57110845  0.45267611  0.82772907     0.11200
S2635       S  0.63669042  0.41677801  0.84419004    -0.32200
S2636       S  0.54794837  0.46929326  0.82027709    -0.32200
H2637       H  0.54765490  0.46447142  0.79623194     0.29200
H2638       H  0.66313043  0.44573818  0.84730373     0.29200
H2639       H  0.58499607  0.39472399  0.81504881     0.19800
H2640       H  0.59460325  0.48710730  0.85375433     0.19800
C2641       C  0.63361588  0.46591911  0.66118010    -0.06100
C2642       C  0.60681520  0.43750310  0.65684953    -0.17200
C2643       C  0.58496926  0.42203152  0.67421615     0.11100
C2644       C  0.58777668  0.43681987  0.69574186    -0.06000
C2645       C  0.61520735  0.46449051  0.70037069    -0.17200
C2646       C  0.63910296  0.47728128  0.68419833     0.11200
S2647       S  0.55351272  0.38403019  0.66746409    -0.32200
S2648       S  0.67627459  0.00626772  0.69461258    -0.32200
H2649       H  0.69294735  0.00329939  0.67631499     0.29200
H2650       H  0.54741860  0.37352648  0.69054495     0.29200
H2651       H  0.60241461  0.42741940  0.63967488     0.19800
H2652       H  0.61841414  0.47599359  0.71688515     0.19800
C2653       C  0.93215542  0.37925069  0.68368921    -0.06100
C2654       C  0.93001648  0.40230574  0.67148255    -0.17200
C2655       C  0.91071076  0.39501999  0.65216460     0.11100
C2656       C  0.89055618  0.36370483  0.64657336    -0.06000
C2657       C  0.89383448  0.34093257  0.65808889    -0.17200
C2658       C  0.91507189  0.34848918  0.67592706     0.11200
S2659       S  0.91159891  0.42633057  0.63624984    -0.32200
S2660       S  0.91875782  0.31772354  0.68854742    -0.32200
H2661       H  0.95012992  0.33584115  0.69369939     0.29200
H2662       H  0.89880077  0.40966079  0.61569393     0.29200
H2663       H  0.94358022  0.42611078  0.67697932     0.19800
H2664       H  0.87916520  0.31688931  0.65351282     0.19800
C2665       C  0.55842435  0.13145480  0.81077752    -0.06100
C2666       C  0.56880890  0.13589503  0.83384668    -0.17200
C2667       C  0.55177958  0.13838306  0.85200054     0.11100
C2668       C  0.52558877  0.14074009  0.84701174    -0.06000
C2669       C  0.51592832  0.13741088  0.82372523    -0.17200
C2670       C  0.53048434  0.13031844  0.80615286     0.11200
S2671       S  0.56373288  0.13619616  0.88109837    -0.32200
S2672       S  0.51123140  0.11798960  0.77861068    -0.32200
H2673       H  0.52067794  0.09665774  0.77390907     0.29200
H2674       H  0.53410827  0.12125111  0.89065060     0.29200
H2675       H  0.58962566  0.13578777  0.83793511     0.19800
H2676       H  0.99649732  0.13954518  0.81901447     0.19800
C2677       C  0.64266373  0.05830733  0.80727144    -0.06100
C2678       C  0.64321274  0.03122120  0.80236361    -0.17200
C2679       C  0.65252967  0.01745104  0.81905354     0.11100
C2680       C  0.65580022  0.02713314  0.84247875    -0.06000
C2681       C  0.65489992  0.05402703  0.84743699    -0.17200
C2682       C  0.65049004  0.07067060  0.82997187     0.11200
S2683       S  0.66251352  0.48991381  0.80877309    -0.32200
S2684       S  0.65600543  0.10787708  0.83779299    -0.32200
H2685       H  0.66669902  0.12140870  0.81586943     0.29200
H2686       H  0.68362427  0.49540815  0.82660337     0.29200
H2687       H  0.63761753  0.02136692  0.78511214     0.19800
H2688       H  0.65826013  0.06261951  0.86506247     0.19800
C2689       C  0.64773930  0.06952971  0.68699751    -0.06100
C2690       C  0.62274940  0.04317800  0.67723220    -0.17200
C2691       C  0.62686486  0.02667147  0.65949644     0.11100
C2692       C  0.65684335  0.03453794  0.65303262    -0.06000
C2693       C  0.68173676  0.06166191  0.66210911    -0.17200
C2694       C  0.67743385  0.07969350  0.67840577     0.11200
S2695       S  0.59309560  0.99720343  0.64502540    -0.32200
S2696       S  0.71072470  0.11514963  0.68754671    -0.32200
H2697       H  0.69512403  0.13047575  0.69389201     0.29200
H2698       H  0.60755308  0.49816961  0.62396904     0.29200
H2699       H  0.59972952  0.03608827  0.68294970     0.19800
H2700       H  0.70482408  0.06864292  0.65665861     0.19800
C2701       C  0.56744624  0.14849092  0.69372592    -0.06100
C2702       C  0.57433783  0.17816986  0.68696781    -0.17200
C2703       C  0.55605589  0.18236119  0.67066289     0.11100
C2704       C  0.53226720  0.15649377  0.65890526    -0.06000
C2705       C  0.52668962  0.12718158  0.66514859    -0.17200
C2706       C  0.54197863  0.12277915  0.68346637     0.11200
S2707       S  0.56403433  0.22115846  0.66595676    -0.32200
S2708       S  0.52831736  0.08347606  0.69235607    -0.32200
H2709       H  0.53722308  0.09041769  0.71570844     0.29200
H2710       H  0.53364324  0.21275960  0.66080738     0.29200
H2711       H  0.59379898  0.19816565  0.69459823     0.19800
H2712       H  0.01053726  0.10737063  0.65562866     0.19800
C2713       C  0.91738325  0.06937753  0.81464041    -0.06100
C2714       C  0.93461970  0.06075292  0.82855844    -0.17200
C2715       C  0.95322912  0.07976196  0.84655888     0.11100
C2716       C  0.95550586  0.10858532  0.85027800    -0.06000
C2717       C  0.93738164  0.11659104  0.83688797    -0.17200
C2718       C  0.91815744  0.09723559  0.81938940     0.11200
S2719       S  0.97333146  0.06596554  0.86403523    -0.32200
S2720       S  0.89576992  0.10971927  0.80340949    -0.32200
H2721       H  0.87183914  0.08011505  0.79749240     0.29200
H2722       H  0.97501240  0.08251207  0.88415931     0.29200
H2723       H  0.93373351  0.03913065  0.82521273     0.19800
H2724       H  0.93860950  0.13844423  0.83989566     0.19800
C2725       C  0.83244917  0.41777634  0.80976331    -0.06100
C2726       C  0.80477196  0.38983140  0.81274105    -0.17200
C2727       C  0.80244091  0.36755432  0.82859204     0.11100
C2728       C  0.82767527  0.37416045  0.84303106    -0.06000
C2729       C  0.85390852  0.40343700  0.84176399    -0.17200
C2730       C  0.85741377  0.42444974  0.82447934     0.11200
S2731       S  0.76670337  0.33139258  0.82941974    -0.32200
S2732       S  0.89451589  0.45885366  0.82070777    -0.32200
H2733       H  0.90939409  0.45384059  0.83933979     0.29200
H2734       H  0.77894592  0.31332580  0.83686733     0.29200
H2735       H  0.78530859  0.38479420  0.80189597     0.19800
H2736       H  0.87184937  0.40987661  0.85436765     0.19800
C2737       C  0.92598303  0.07830793  0.69207592    -0.06100
C2738       C  0.93761747  0.06877706  0.67374675    -0.17200
C2739       C  0.95343796  0.08823544  0.65518516     0.11100
C2740       C  0.96275227  0.11982998  0.65661398    -0.06000
C2741       C  0.95140322  0.12974149  0.67480337    -0.17200
C2742       C  0.93170118  0.10899466  0.69169130     0.11200
S2743       S  0.95995440  0.07059810  0.63013255    -0.32200
S2744       S  0.91325549  0.12271341  0.71108361    -0.32200
H2745       H  0.88683094  0.09382255  0.71470488     0.29200
H2746       H  0.98164070  0.09734929  0.61855407     0.29200
H2747       H  0.93315522  0.04533379  0.67332480     0.19800
H2748       H  0.95667269  0.15346452  0.67514323     0.19800
C2749       C  0.83903959  0.37955904  0.65347258    -0.06100
C2750       C  0.85249097  0.38160796  0.67528928    -0.17200
C2751       C  0.85841492  0.40549719  0.69063696     0.11100
C2752       C  0.84233223  0.42147543  0.68822288    -0.06000
C2753       C  0.82442947  0.41588095  0.66828171    -0.17200
C2754       C  0.82607310  0.39864182  0.64983380     0.11200
S2755       S  0.88765085  0.41545676  0.71235132    -0.32200
S2756       S  0.81436875  0.40534661  0.62188962    -0.32200
H2757       H  0.83735070  0.40365782  0.60942930     0.29200
H2758       H  0.89742811  0.44705956  0.71290236     0.29200
H2759       H  0.86059186  0.36622775  0.67994771     0.19800
H2760       H  0.81064819  0.42653906  0.66630874     0.19800
C2761       C  0.92028124  0.16880398  0.55191251    -0.06100
C2762       C  0.92363611  0.14284304  0.55263961    -0.17200
C2763       C  0.94491291  0.14157037  0.56744696     0.11100
C2764       C  0.96431599  0.16740370  0.58144242    -0.06000
C2765       C  0.96181053  0.19388113  0.57996375    -0.17200
C2766       C  0.94000777  0.19481646  0.56548463     0.11200
S2767       S  0.94445662  0.10544862  0.56843097    -0.32200
S2768       S  0.93816843  0.22965722  0.56538609    -0.32200
H2769       H  0.92880116  0.22738005  0.54214123     0.29200
H2770       H  0.97190013  0.11556750  0.58049291     0.29200
H2771       H  0.90855773  0.12278685  0.54231468     0.19800
H2772       H  0.97606070  0.21351446  0.59093367     0.19800
C2773       C  0.81998338  0.07760642  0.44852393    -0.06100
C2774       C  0.80351108  0.07246928  0.42782828    -0.17200
C2775       C  0.80247056  0.05185662  0.41103526     0.11100
C2776       C  0.81747209  0.03503192  0.41533963    -0.06000
C2777       C  0.83209368  0.03862850  0.43677822    -0.17200
C2778       C  0.83349076  0.05961882  0.45335909     0.11200
S2779       S  0.78298093  0.54985284  0.38422759    -0.32200
S2780       S  0.85317662  0.06266644  0.48018031    -0.32200
H2781       H  0.83466079  0.06966883  0.49403519     0.29200
H2782       H  0.78527610  0.52633568  0.37320535     0.29200
H2783       H  0.79281786  0.08596853  0.42410102     0.19800
H2784       H  0.84388136  0.02610097  0.44016867     0.19800
C2785       C  0.75207224  0.08079957  0.55259754    -0.06100
C2786       C  0.76182513  0.06602673  0.56815584    -0.17200
C2787       C  0.74109308  0.04255114  0.58297570     0.11100
C2788       C  0.70966567  0.03317070  0.58213782    -0.06000
C2789       C  0.69983539  0.04741374  0.56616767    -0.17200
C2790       C  0.72052625  0.07079298  0.55135277     0.11200
S2791       S  0.75652264  0.02681540  0.60342400    -0.32200
S2792       S  0.70589877  0.08935972  0.53304826    -0.32200
H2793       H  0.71254633  0.07886698  0.51248363     0.29200
H2794       H  0.73738400  0.02392067  0.62207424     0.29200
H2795       H  0.78592455  0.07335407  0.56917341     0.19800
H2796       H  0.67600131  0.04122318  0.56599721     0.19800
C2797       C  0.97084498  0.28943618  0.41688734    -0.06100
C2798       C  0.96423642  0.25880527  0.41765852    -0.17200
C2799       C  0.94237465  0.23720989  0.43298437     0.11100
C2800       C  0.92581005  0.24596269  0.44792414    -0.06000
C2801       C  0.93337052  0.27704800  0.44768241    -0.17200
C2802       C  0.95569793  0.29876065  0.43262949     0.11200
S2803       S  0.93530640  0.19844274  0.43112923    -0.32200
S2804       S  0.96332362  0.33785320  0.43423089    -0.32200
H2805       H  0.99257432  0.35212747  0.42417024     0.29200
H2806       H  0.94493094  0.19875989  0.45409500     0.29200
H2807       H  0.97525970  0.25118828  0.40547549     0.19800
H2808       H  0.92160385  0.28459675  0.45923367     0.19800
C2809       C  0.75574481  0.17909102  0.45094974    -0.06100
C2810       C  0.76467782  0.19320366  0.42909575    -0.17200
C2811       C  0.74305857  0.19183980  0.41324333     0.11100
C2812       C  0.71169515  0.17616926  0.41933978    -0.06000
C2813       C  0.70305635  0.16400974  0.44177753    -0.17200
C2814       C  0.72469678  0.16547490  0.45765637     0.11200
S2815       S  0.75673243  0.20879801  0.38498680    -0.32200
S2816       S  0.71115418  0.14904962  0.48603108    -0.32200
H2817       H  0.73845319  0.16920721  0.49778521     0.29200
H2818       H  0.73196295  0.21273193  0.37933012     0.29200
H2819       H  0.78844734  0.20393801  0.42384218     0.19800
H2820       H  0.67910779  0.15198574  0.44661399     0.19800
C2821       C  0.83540194  0.29876398  0.57916517    -0.06100
C2822       C  0.81115682  0.26811284  0.58046681    -0.17200
C2823       C  0.81039744  0.24505603  0.56644685     0.11100
C2824       C  0.83470616  0.25248759  0.55089346    -0.06000
C2825       C  0.85835425  0.28330089  0.54887709    -0.17200
C2826       C  0.85898711  0.30646848  0.56275435     0.11200
S2827       S  0.77763531  0.20672176  0.56909808    -0.32200
S2828       S  0.89075167  0.34517376  0.55881092    -0.32200
H2829       H  0.87594089  0.36047034  0.56710987     0.29200
H2830       H  0.77683466  0.19883181  0.54558944     0.29200
H2831       H  0.79300158  0.26185218  0.59296361     0.19800
H2832       H  0.87687436  0.28927353  0.53673598     0.19800
C2833       C  0.70712974  0.03380365  0.91696403    -0.06100
C2834       C  0.73799772  0.04262732  0.91495428    -0.17200
C2835       C  0.76027936  0.06612598  0.92878704     0.11100
C2836       C  0.75148299  0.08069601  0.94565480    -0.06000
C2837       C  0.72032089  0.07133945  0.94782044    -0.17200
C2838       C  0.69814841  0.04825464  0.93352318     0.11200
S2839       S  0.79958750  0.07796156  0.92253809    -0.32200
S2840       S  0.65852741  0.53800571  0.93582716    -0.32200
H2841       H  0.66246188  0.55822404  0.95408617     0.29200
H2842       H  0.80991501  0.10969476  0.92352847     0.29200
H2843       H  0.74500157  0.03230741  0.90163145     0.19800
H2844       H  0.71336732  0.08229168  0.96063946     0.19800
C2845       C  0.71303743  0.17837637  0.08514219    -0.06100
C2846       C  0.70215154  0.16488913  0.06330569    -0.17200
C2847       C  0.72153616  0.16342270  0.04671456     0.11100
C2848       C  0.75276050  0.17482556  0.05215179    -0.06000
C2849       C  0.76387383  0.18965389  0.07366362    -0.17200
C2850       C  0.74462851  0.19203104  0.08991769     0.11200
S2851       S  0.70420506  0.14465041  0.01974781    -0.32200
S2852       S  0.76182529  0.21263948  0.11644509    -0.32200
H2853       H  0.73968669  0.22088988  0.12108812     0.29200
H2854       H  0.72260489  0.17134175  0.00654912     0.29200
H2855       H  0.67798888  0.15418674  0.05941972     0.19800
H2856       H  0.78785476  0.19947665  0.07797786     0.19800
C2857       C  0.96299889  0.16910610  0.91916433    -0.06100
C2858       C  0.95210930  0.14986692  0.93869409    -0.17200
C2859       C  0.93086721  0.15062786  0.95391616     0.11100
C2860       C  0.91959060  0.17069461  0.94928934    -0.06000
C2861       C  0.93176609  0.19112151  0.93039732    -0.17200
C2862       C  0.95287320  0.19020520  0.91512927     0.11200
S2863       S  0.91893682  0.12632202  0.97942154    -0.32200
S2864       S  0.96491501  0.21568744  0.89037698    -0.32200
H2865       H  0.46832001  0.19626505  0.87480853     0.29200
H2866       H  0.93666800  0.11250357  0.97547861     0.29200
H2867       H  0.95967791  0.13351914  0.94157783     0.19800
H2868       H  0.92356520  0.20681980  0.92675979     0.19800
C2869       C  0.81993208  0.07549901  0.05145291    -0.06100
C2870       C  0.80704549  0.07269940  0.07361457    -0.17200
C2871       C  0.80499687  0.05091586  0.08978988     0.11100
C2872       C  0.81723641  0.03191900  0.08440213    -0.06000
C2873       C  0.82807552  0.03300451  0.06179734    -0.17200
C2874       C  0.82889740  0.05388670  0.04519254     0.11200
S2875       S  0.78704965  0.04896247  0.11727776    -0.32200
S2876       S  0.84335678  0.05269520  0.01692713    -0.32200
H2877       H  0.81664222  0.04766686  0.00551768     0.29200
H2878       H  0.77877149  0.01838084  0.12238667     0.29200
H2879       H  0.79870837  0.08788480  0.07860112     0.19800
H2880       H  0.83732690  0.01844691  0.05730648     0.19800
C2881       C  0.91898605  0.24608864  0.05037249    -0.06100
C2882       C  0.93321097  0.27753282  0.04477918    -0.17200
C2883       C  0.95444011  0.30011355  0.05975399     0.11100
C2884       C  0.96267240  0.29123889  0.08053554    -0.06000
C2885       C  0.94960243  0.25982277  0.08563937    -0.17200
C2886       C  0.92821646  0.23720770  0.07074466     0.11200
S2887       S  0.96822290  0.33970901  0.05208283    -0.32200
S2888       S  0.91413334  0.19757667  0.07862336    -0.32200
H2889       H  0.91329122  0.18752692  0.05570863     0.29200
H2890       H  0.96839308  0.34987200  0.07482968     0.29200
H2891       H  0.92641170  0.28473738  0.02927532     0.19800
H2892       H  0.95590858  0.25289716  0.10153373     0.19800
C2893       C  0.82437647  0.29272537  0.91599273    -0.06100
C2894       C  0.79896975  0.26287064  0.91763073    -0.17200
C2895       C  0.79933660  0.24045690  0.93189693     0.11100
C2896       C  0.82554227  0.24803422  0.94566863    -0.06000
C2897       C  0.85054645  0.27842464  0.94454165    -0.17200
C2898       C  0.85020870  0.30067817  0.93003881     0.11200
S2899       S  0.76640527  0.20218279  0.93007478    -0.32200
S2900       S  0.88361065  0.33882793  0.93014675    -0.32200
H2901       H  0.86850731  0.35456123  0.92347689     0.29200
H2902       H  0.78391700  0.18800696  0.92653596     0.29200
H2903       H  0.77925224  0.25641287  0.90667240     0.19800
H2904       H  0.87065815  0.28503385  0.95506864     0.19800
Zn2905     Zn  0.83107424  0.66549226  0.03277111     1.49700
Zn2906     Zn  0.83342802  0.63058031  0.98827968     1.49400
Zn2907     Zn  0.79370841  0.66446603  0.98808514     1.49100
Zn2908     Zn  0.86698377  0.70441211  0.98691466     1.49500
O2909       O  0.83134531  0.66639689  0.99886442    -1.84100
O2910       O  0.82414976  0.62465347  0.04549972    -0.74700
O2911       O  0.79809651  0.60513240  0.96702434    -0.74500
O2912       O  0.76893929  0.66641026  0.01500186    -0.74000
O2913       O  0.82934593  0.60175165  0.01461564    -0.74700
O2914       O  0.79770112  0.67198193  0.04561769    -0.74300
O2915       O  0.76844591  0.62581327  0.96885448    -0.74900
O2916       O  0.85393446  0.73012729  0.96759890    -0.74300
O2917       O  0.87289901  0.64397749  0.97073546    -0.75000
O2918       O  0.80336281  0.70116523  0.96781060    -0.74400
O2919       O  0.89420771  0.69468740  0.96693148    -0.74900
O2920       O  0.89378641  0.72928972  0.01387640    -0.74800
O2921       O  0.87126858  0.69981160  0.04476620    -0.74600
C2922       C  0.82470735  0.60188978  0.03630929     0.77200
C2923       C  0.77390581  0.60524236  0.96127823     0.77700
C2924       C  0.77411795  0.67079829  0.03669647     0.76600
C2925       C  0.82769982  0.72524679  0.96116212     0.77000
C2926       C  0.89433101  0.66978729  0.96314995     0.78200
C2927       C  0.89344032  0.72373328  0.03552384     0.77200
Zn2928     Zn  0.83557381  0.66795102  0.53486360     1.49700
Zn2929     Zn  0.84089006  0.70696418  0.48871027     1.49400
Zn2930     Zn  0.86844722  0.66214227  0.48947914     1.49100
Zn2931     Zn  0.79562435  0.63411547  0.49019497     1.49500
O2932       O  0.83526343  0.66789139  0.50082479    -1.84100
O2933       O  0.83245480  0.70432085  0.54661542    -0.74700
O2934       O  0.88020878  0.73050224  0.46999917    -0.74500
O2935       O  0.89434559  0.66134915  0.51602564    -0.74000
O2936       O  0.84160648  0.73355062  0.51516433    -0.74700
O2937       O  0.87519887  0.67192972  0.54707839    -0.74300
O2938       O  0.89746080  0.69798406  0.46873701    -0.74900
O2939       O  0.80138198  0.60599477  0.46854280    -0.74300
O2940       O  0.80501663  0.69976365  0.46833382    -0.75000
O2941       O  0.85114971  0.62235563  0.47115125    -0.74400
O2942       O  0.77134760  0.64996275  0.47346474    -0.74900
O2943       O  0.77035013  0.60710423  0.51667964    -0.74800
O2944       O  0.79965867  0.62794525  0.54773684    -0.74600
C2945       C  0.83632128  0.72881292  0.53683628     0.77200
C2946       C  0.89987842  0.72359353  0.46301752     0.77700
C2947       C  0.89532746  0.66739883  0.53758735     0.76600
C2948       C  0.82437960  0.60321992  0.46369293     0.77000
C2949       C  0.77851756  0.67624691  0.46517687     0.78200
C2950       C  0.77519210  0.60673972  0.53829572     0.77200
N2951       N  0.86586645  0.99521366  0.78504070    -0.36600
N2952       N  0.89712530  0.54485479  0.75210243    -0.57100
N2953       N  0.87371337  0.99873810  0.71564335    -0.36500
N2954       N  0.83982985  0.94910932  0.74879609    -0.57100
C2955       C  0.87508668  0.51990015  0.79901636     0.27000
C2956       C  0.84517171  0.97021353  0.79702921     0.27000
C2957       C  0.88400266  0.52521536  0.70339251     0.27000
C2958       C  0.85624721  0.97492412  0.70118833     0.27000
C2959       C  0.91113704  0.56000392  0.77180528     0.35700
C2960       C  0.91484884  0.56225448  0.73428423     0.35700
C2961       C  0.83326010  0.93021515  0.76736221     0.35700
C2962       C  0.83606913  0.93179454  0.72978266     0.35700
C2963       C  0.85937579  0.51067431  0.81988976    -0.21800
C2964       C  0.84039091  0.97919739  0.81861950    -0.21800
C2965       C  0.87198164  0.51816090  0.68119153    -0.21800
C2966       C  0.85547421  0.98666505  0.67952565    -0.21800
C2967       C  0.93721108  0.58759131  0.76647258    -0.22900
C2968       C  0.94006519  0.58873497  0.74274563    -0.22900
C2969       C  0.82396048  0.90055217  0.76002876    -0.22900
C2970       C  0.82473532  0.90133822  0.73630042    -0.22900
C2971       C  0.90026668  0.54950177  0.79451444    -0.18200
C2972       C  0.83576838  0.93958297  0.79081078    -0.18200
C2973       C  0.84389707  0.94322396  0.70671850    -0.18200
C2974       C  0.90737649  0.55501938  0.71056234    -0.18200
H2975       H  0.86246848  0.52492661  0.83487231     0.14700
H2976       H  0.82621425  0.96433086  0.83251587     0.14700
H2977       H  0.87604396  0.53404520  0.66712168     0.14700
H2978       H  0.84490611  0.97463853  0.66369726     0.14700
H2979       H  0.95223786  0.60527594  0.77847940     0.13000
H2980       H  0.95835738  0.60722652  0.73293279     0.13000
H2981       H  0.81747159  0.88030416  0.77045362     0.13000
H2982       H  0.81860965  0.88170009  0.72524278     0.13000
H2983       H  0.87732694  0.99465794  0.77027505     0.26200
H2984       H  0.88206218  0.99671214  0.73160973     0.26200
N2985       N  0.60741076  0.60268784  0.78437013    -0.36600
N2986       N  0.58955424  0.63352330  0.75110525    -0.57100
N2987       N  0.61803241  0.61780541  0.71401680    -0.36500
N2988       N  0.63434227  0.58509757  0.74771507    -0.57100
C2989       C  0.58464488  0.60389271  0.79568686     0.27000
C2990       C  0.60997954  0.57963232  0.79406576     0.27000
C2991       C  0.60246780  0.62809041  0.70133829     0.27000
C2992       C  0.62578408  0.60168858  0.69950507     0.27000
C2993       C  0.58353545  0.64341642  0.77111387     0.35700
C2994       C  0.58759831  0.65052495  0.73378498     0.35700
C2995       C  0.64600644  0.57809662  0.76628222     0.35700
C2996       C  0.64878751  0.58282877  0.72879829     0.35700
C2997       C  0.57221386  0.58088808  0.81241649    -0.21800
C2998       C  0.58834539  0.56567567  0.81147072    -0.21800
C2999       C  0.60233367  0.62024593  0.67822689    -0.21800
C3000       C  0.61681811  0.60351680  0.67710121    -0.21800
C3001       C  0.57914294  0.66795125  0.76660913    -0.22900
C3002       C  0.58069609  0.67176782  0.74288950    -0.22900
C3003       C  0.66875040  0.57233827  0.75915238    -0.22900
C3004       C  0.66965645  0.57415248  0.73537149    -0.22900
C3005       C  0.57649269  0.62667922  0.79222346    -0.18200
C3006       C  0.63324310  0.57293468  0.78884356    -0.18200
C3007       C  0.64142116  0.58599638  0.70567591    -0.18200
C3008       C  0.58787783  0.64391343  0.70996198    -0.18200
H3009       H  0.55370479  0.57580081  0.82429683     0.14700
H3010       H  0.58487016  0.54678219  0.82253522     0.14700
H3011       H  0.59259750  0.62574749  0.66358302     0.14700
H3012       H  0.62036279  0.59391194  0.66143067     0.14700
H3013       H  0.57312821  0.68024849  0.77891000     0.13000
H3014       H  0.57648949  0.68789407  0.73358945     0.13000
H3015       H  0.68248972  0.56622071  0.76974009     0.13000
H3016       H  0.68403494  0.56944585  0.72433664     0.13000
H3017       H  0.62288401  0.61907612  0.77275690     0.26200
H3018       H  0.62411891  0.62255662  0.73135047     0.26200
N3019       N  0.99425898  0.89380678  0.78517948    -0.36600
N3020       N  0.95320176  0.88212452  0.74696385    -0.57100
N3021       N  0.00558885  0.90398403  0.71537073    -0.36500
N3022       N  0.54627956  0.91439516  0.75356667    -0.57100
C3023       C  0.96716676  0.87852231  0.79657896     0.27000
C3024       C  0.51621730  0.89693461  0.80022988     0.27000
C3025       C  0.98433047  0.90365418  0.70092324     0.27000
C3026       C  0.53320167  0.92045223  0.70470657     0.27000
C3027       C  0.93206396  0.87285288  0.76411586     0.35700
C3028       C  0.93821768  0.87774594  0.72665085     0.35700
C3029       C  0.56124319  0.91776188  0.77370718     0.35700
C3030       C  0.56677703  0.92094495  0.73632981     0.35700
C3031       C  0.97212304  0.87154216  0.81890082    -0.21800
C3032       C  0.50308679  0.88349199  0.82128225    -0.21800
C3033       C  0.99858432  0.92015413  0.68096711    -0.21800
C3034       C  0.52926707  0.93102889  0.68353655    -0.21800
C3035       C  0.90341545  0.86282097  0.75457328    -0.22900
C3036       C  0.90720365  0.86508632  0.73088887    -0.22900
C3037       C  0.59137497  0.92618804  0.76923043    -0.22900
C3038       C  0.59451662  0.92700330  0.74560549    -0.22900
C3039       C  0.93823773  0.87227550  0.78811877    -0.18200
C3040       C  0.54804160  0.91292596  0.79604500    -0.18200
C3041       C  0.56167814  0.92491683  0.71274179    -0.18200
C3042       C  0.95225269  0.88729788  0.70451027    -0.18200
H3043       H  0.95522337  0.85941675  0.83229237     0.14700
H3044       H  0.51466363  0.88242724  0.83673553     0.14700
H3045       H  0.98834056  0.92381801  0.66578837     0.14700
H3046       H  0.54659461  0.94483054  0.67090059     0.14700
H3047       H  0.88186753  0.85434357  0.76352689     0.13000
H3048       H  0.88921230  0.85894367  0.71826746     0.13000
H3049       H  0.60931293  0.93071164  0.78147194     0.13000
H3050       H  0.61530907  0.93241262  0.73651054     0.13000
H3051       H  0.99824316  0.90497945  0.76932031     0.26200
H3052       H  0.00095792  0.89038962  0.73010671     0.26200
C3053       C  0.98275469  0.66530709  0.60066927     0.02300
C3054       C  0.51513869  0.68233439  0.60128860     0.02300
C3055       C  0.53039721  0.67886761  0.62045024    -0.18200
C3056       C  0.51438914  0.65931465  0.63922536     0.02300
C3057       C  0.98186163  0.64221623  0.63835691     0.02300
C3058       C  0.96668597  0.64571826  0.61930488    -0.18200
H3059       H  0.94186032  0.63268032  0.61886522     0.04400
H3060       H  0.55521142  0.69148508  0.62062288     0.04400
C3061       C  0.68829410  0.51432886  0.60091118     0.02300
C3062       C  0.67658156  0.98237129  0.60374493     0.02300
C3063       C  0.66032208  0.96782604  0.62410209    -0.18200
C3064       C  0.65351581  0.98373249  0.64101214     0.02300
C3065       C  0.66342980  0.51539310  0.63702607     0.02300
C3066       C  0.68112652  0.53011051  0.61736692    -0.18200
H3067       H  0.68957107  0.55447880  0.61478615     0.04400
H3068       H  0.65214894  0.94349915  0.62643736     0.04400
C3069       C  0.80437411  0.82497228  0.89728611     0.02300
C3070       C  0.82479498  0.81357979  0.89742586     0.02300
C3071       C  0.84551842  0.82120686  0.87886719    -0.18200
C3072       C  0.84675538  0.84036047  0.86059772     0.02300
C3073       C  0.82669313  0.85230813  0.86090412     0.02300
C3074       C  0.80597194  0.84447475  0.87925092    -0.18200
H3075       H  0.79106917  0.85409664  0.87967793     0.04400
H3076       H  0.86082389  0.81207337  0.87860004     0.04400
C3077       C  0.83705781  0.82084530  0.59706688     0.02300
C3078       C  0.81269616  0.82621299  0.60086684     0.02300
C3079       C  0.81308546  0.84281601  0.62051465    -0.18200
C3080       C  0.83899400  0.85821376  0.63493310     0.02300
C3081       C  0.86390950  0.85307673  0.63074275     0.02300
C3082       C  0.86201481  0.83390595  0.61229400    -0.18200
H3083       H  0.88025379  0.82887100  0.60985510     0.04400
H3084       H  0.79321681  0.84488799  0.62388728     0.04400
C3085       C  0.66755524  0.98128251  0.90180682     0.02300
C3086       C  0.68540075  0.51344574  0.89910356     0.02300
C3087       C  0.68188281  0.52724197  0.87915936    -0.18200
C3088       C  0.65958244  0.51000765  0.86231695     0.02300
C3089       C  0.64012073  0.97770604  0.86595606     0.02300
C3090       C  0.64456541  0.96397374  0.88562413    -0.18200
H3091       H  0.62992930  0.93940379  0.88843569     0.04400
H3092       H  0.69652770  0.55193143  0.87697126     0.04400
C3093       C  0.98027038  0.66260798  0.90146195     0.02300
C3094       C  0.51253211  0.67936973  0.89945980     0.02300
C3095       C  0.52625684  0.67156639  0.88148905    -0.18200
C3096       C  0.50894347  0.64755122  0.86559295     0.02300
C3097       C  0.97651378  0.63147027  0.86756246     0.02300
C3098       C  0.96290612  0.63900977  0.88560210    -0.18200
H3099       H  0.93813262  0.62669751  0.88700318     0.04400
H3100       H  0.55094790  0.68461305  0.87981839     0.04400
Zn3101     Zn  0.66785893  0.83028015  0.53403900     1.49700
Zn3102     Zn  0.66685791  0.86754793  0.48919959     1.49400
Zn3103     Zn  0.70603475  0.83350982  0.48810624     1.49100
Zn3104     Zn  0.63284259  0.79264399  0.48945497     1.49500
O3105       O  0.66853053  0.83122446  0.50007917    -1.84100
O3106       O  0.67358064  0.87021532  0.54688366    -0.74700
O3107       O  0.70398545  0.89533811  0.46911529    -0.74500
O3108       O  0.73044213  0.83064700  0.51483564    -0.74000
O3109       O  0.66836723  0.89438238  0.51651833    -0.74700
O3110       O  0.70245157  0.82518302  0.54612573    -0.74300
O3111       O  0.73254854  0.87345732  0.46981027    -0.74900
O3112       O  0.64542202  0.76678666  0.47076158    -0.74300
O3113       O  0.62866550  0.85356529  0.46932295    -0.75000
O3114       O  0.69570224  0.79701997  0.46703582    -0.74400
O3115       O  0.60804291  0.80266574  0.46815023    -0.74900
O3116       O  0.60418599  0.76711582  0.51579478    -0.74800
O3117       O  0.62764315  0.79537075  0.54677430    -0.74600
C3118       C  0.67279941  0.89310185  0.53821915     0.77200
C3119       C  0.72832470  0.89533734  0.46344081     0.77700
C3120       C  0.72594466  0.82675824  0.53665949     0.76600
C3121       C  0.67091701  0.77209985  0.46234099     0.77000
C3122       C  0.60817834  0.82702426  0.46204085     0.78200
C3123       C  0.60483137  0.77196385  0.53756260     0.77200
Zn3124     Zn  0.66296829  0.83106935  0.96761143     1.49700
Zn3125     Zn  0.70142341  0.83223231  0.01252795     1.49400
Zn3126     Zn  0.66376233  0.86676579  0.01368133     1.49100
Zn3127     Zn  0.62762743  0.79211885  0.01212930     1.49500
O3128       O  0.66389805  0.83047615  0.00152976    -1.84100
O3129       O  0.69807791  0.82732185  0.95481311    -0.74700
O3130       O  0.72779458  0.87014427  0.03266730    -0.74500
O3131       O  0.66641858  0.89534878  0.98800601    -0.74000
O3132       O  0.72589068  0.83049241  0.98560320    -0.74700
O3133       O  0.66718947  0.87107978  0.95609117    -0.74300
O3134       O  0.69956865  0.89214752  0.03509976    -0.74900
O3135       O  0.60010748  0.80225752  0.03090492    -0.74300
O3136       O  0.69090696  0.79494714  0.03181305    -0.75000
O3137       O  0.62485110  0.85339678  0.03126789    -0.74400
O3138       O  0.64017883  0.76667801  0.03185450    -0.74900
O3139       O  0.60143930  0.76592989  0.98515659    -0.74800
O3140       O  0.62334964  0.79544505  0.95454389    -0.74600
C3141       C  0.72133825  0.82780187  0.96378272     0.77200
C3142       C  0.72338548  0.89121853  0.04069645     0.77700
C3143       C  0.66776018  0.89400758  0.96601990     0.76600
C3144       C  0.60182586  0.82745978  0.03685682     0.77000
C3145       C  0.66625146  0.77105198  0.03816064     0.78200
C3146       C  0.60162055  0.77079957  0.96345720     0.77200
N3147       N  0.50188965  0.61436583  0.28615619    -0.36600
N3148       N  0.95447182  0.59714388  0.25124095    -0.57100
N3149       N  0.49765737  0.60825315  0.21513131    -0.36500
N3150       N  0.54532496  0.62525365  0.24969095    -0.57100
C3151       C  0.97578033  0.59847525  0.29889092     0.27000
C3152       C  0.52505690  0.61506922  0.29846645     0.27000
C3153       C  0.97072554  0.59118877  0.20379520     0.27000
C3154       C  0.51953662  0.60722283  0.20248344     0.27000
C3155       C  0.94015850  0.59953285  0.27011021     0.35700
C3156       C  0.93809644  0.59673996  0.23264263     0.35700
C3157       C  0.56493222  0.63723966  0.26778469     0.35700
C3158       C  0.56245700  0.63482710  0.23016250     0.35700
C3159       C  0.98255828  0.58902048  0.31949120    -0.21800
C3160       C  0.51363618  0.60034998  0.31957891    -0.21800
C3161       C  0.97568743  0.57906120  0.18379330    -0.21800
C3162       C  0.50657154  0.58974770  0.18268023    -0.21800
C3163       C  0.91494791  0.60159334  0.26345608    -0.22900
C3164       C  0.91368125  0.59987802  0.23960349    -0.22900
C3165       C  0.59472699  0.65438466  0.25965832    -0.22900
C3166       C  0.59307230  0.65328781  0.23586201    -0.22900
C3167       C  0.94664131  0.59423007  0.29289391    -0.18200
C3168       C  0.55626031  0.62962360  0.29129995    -0.18200
C3169       C  0.55109657  0.62384974  0.20761258    -0.18200
C3170       C  0.94251929  0.58853212  0.21023017    -0.18200
H3171       H  0.96702305  0.57598448  0.33338764     0.14700
H3172       H  0.52601811  0.59780448  0.33383166     0.14700
H3173       H  0.95906978  0.56467475  0.17094312     0.14700
H3174       H  0.51792702  0.58531129  0.16863323     0.14700
H3175       H  0.89836519  0.60260302  0.27468143     0.13000
H3176       H  0.89593735  0.59921673  0.22873938     0.13000
H3177       H  0.61565483  0.66587540  0.26963350     0.13000
H3178       H  0.61241204  0.66391778  0.22416519     0.13000
H3179       H  0.50426859  0.62657961  0.27096024     0.26200
H3180       H  0.50159295  0.62288525  0.22911557     0.26200
N3181       N  0.90919430  0.90669665  0.28715384    -0.36600
N3182       N  0.92693938  0.87669472  0.25251159    -0.57100
N3183       N  0.90680906  0.90247022  0.21622235    -0.36500
N3184       N  0.89067291  0.93407300  0.25078315    -0.57100
C3185       C  0.92417790  0.89677823  0.30088579     0.27000
C3186       C  0.90272171  0.92499751  0.30023391     0.27000
C3187       C  0.92264594  0.89220548  0.20389172     0.27000
C3188       C  0.90413891  0.92307852  0.20273429     0.27000
C3189       C  0.93143729  0.86421225  0.27179090     0.35700
C3190       C  0.92749934  0.86004435  0.23434235     0.35700
C3191       C  0.87951733  0.94178000  0.26932107     0.35700
C3192       C  0.87962100  0.94063079  0.23158451     0.35700
C3193       C  0.92662804  0.90844479  0.32308571    -0.21800
C3194       C  0.91301530  0.92597194  0.32272172    -0.21800
C3195       C  0.93029385  0.90668885  0.18246476    -0.21800
C3196       C  0.91822085  0.92564713  0.18154374    -0.21800
C3197       C  0.93528668  0.83973335  0.26573822    -0.22900
C3198       C  0.93166435  0.83639632  0.24218371    -0.22900
C3199       C  0.86189930  0.95400910  0.26180850    -0.22900
C3200       C  0.86176543  0.95302254  0.23798801    -0.22900
C3201       C  0.93361237  0.87560448  0.29459983    -0.18200
C3202       C  0.88606792  0.93922245  0.29291102    -0.18200
C3203       C  0.88720887  0.93760344  0.20840590    -0.18200
C3204       C  0.92843970  0.86852147  0.21081142    -0.18200
H3205       H  0.93614632  0.90397524  0.33837567     0.14700
H3206       H  0.91048003  0.93739344  0.33769521     0.14700
H3207       H  0.94248946  0.90330700  0.16854258     0.14700
H3208       H  0.91948761  0.93929670  0.16665798     0.14700
H3209       H  0.94037299  0.82567420  0.27692122     0.13000
H3210       H  0.93322790  0.81921504  0.23198397     0.13000
H3211       H  0.85038749  0.96285191  0.27233175     0.13000
H3212       H  0.84995546  0.96074109  0.22670008     0.13000
H3213       H  0.90101926  0.89893450  0.27059220     0.26200
H3214       H  0.89511607  0.89300449  0.23164143     0.26200
C3215       C  0.82372485  0.51860895  0.39673550     0.02300
C3216       C  0.81452328  0.98698114  0.39824464     0.02300
C3217       C  0.82593064  0.97463628  0.38187841    -0.18200
C3218       C  0.84570853  0.99270986  0.36384562     0.02300
C3219       C  0.85347149  0.52401948  0.36158993     0.02300
C3220       C  0.84280080  0.53648304  0.37840182    -0.18200
H3221       H  0.84973428  0.56067479  0.37740146     0.04400
H3222       H  0.81937591  0.95057571  0.38326050     0.04400
N3223       N  0.61965534  0.49116313  0.28516521    -0.36600
N3224       N  0.64003762  0.54464005  0.25500130    -0.57100
N3225       N  0.61059432  0.50378296  0.21606521    -0.36500
N3226       N  0.58945083  0.95052850  0.24572675    -0.57100
C3227       C  0.62878130  0.51374662  0.30139176     0.27000
C3228       C  0.60180397  0.96366704  0.29599722     0.27000
C3229       C  0.61705880  0.53116535  0.20690061     0.27000
C3230       C  0.58976198  0.98146020  0.20199148     0.27000
C3231       C  0.65379253  0.55968350  0.27483197     0.35700
C3232       C  0.65204645  0.56550223  0.23752468     0.35700
C3233       C  0.58774100  0.92972206  0.26138679     0.35700
C3234       C  0.58232008  0.93628678  0.22488049     0.35700
C3235       C  0.61820430  0.49997576  0.32293429    -0.21800
C3236       C  0.60009898  0.96899582  0.31938427    -0.21800
C3237       C  0.59987138  0.52620354  0.18696718    -0.21800
C3238       C  0.58308318  0.99500635  0.18364965    -0.21800
C3239       C  0.67407446  0.59052280  0.26968401    -0.22900
C3240       C  0.67418334  0.59369143  0.24610369    -0.22900
C3241       C  0.58013698  0.90229962  0.25040580    -0.22900
C3242       C  0.57582053  0.90613694  0.22742258    -0.22900
C3243       C  0.64625296  0.54636181  0.29746670    -0.18200
C3244       C  0.58835870  0.93379444  0.28567421    -0.18200
C3245       C  0.57930578  0.94958631  0.20409446    -0.18200
C3246       C  0.64034168  0.56047742  0.21463427    -0.18200
H3247       H  0.62279315  0.51063883  0.33984753     0.14700
H3248       H  0.58752136  0.95251739  0.33291847     0.14700
H3249       H  0.60026861  0.54332839  0.17538811     0.14700
H3250       H  0.56858982  0.98408100  0.16879577     0.14700
H3251       H  0.68714283  0.60955112  0.28125150     0.13000
H3252       H  0.68753215  0.61500904  0.23663565     0.13000
H3253       H  0.57630653  0.88115062  0.25836464     0.13000
H3254       H  0.56810628  0.88837443  0.21433648     0.13000
H3255       H  0.62700788  0.49414326  0.26806000     0.26200
H3256       H  0.62300444  0.50073503  0.22908487     0.26200
C3257       C  0.82445589  0.51571832  0.10290770     0.02300
C3258       C  0.81586445  0.98421528  0.10156932     0.02300
C3259       C  0.82705052  0.97201824  0.11833258    -0.18200
C3260       C  0.84693930  0.99031860  0.13616432     0.02300
C3261       C  0.85471987  0.52166398  0.13795480     0.02300
C3262       C  0.84307842  0.53359610  0.12143380    -0.18200
H3263       H  0.84921022  0.55752328  0.12272165     0.04400
H3264       H  0.82024486  0.94786035  0.11740776     0.04400
C3265       C  0.66728149  0.67873327  0.40108765     0.02300
C3266       C  0.68748872  0.66719955  0.40152069     0.02300
C3267       C  0.68423423  0.64540555  0.38497927    -0.18200
C3268       C  0.66236483  0.63579725  0.36724168     0.02300
C3269       C  0.64338374  0.64919231  0.36546513     0.02300
C3270       C  0.64553111  0.66958605  0.38314363    -0.18200
H3271       H  0.63072705  0.67929634  0.38252615     0.04400
H3272       H  0.69890982  0.63555432  0.38606335     0.04400
C3273       C  0.69019826  0.67345626  0.10341156     0.02300
C3274       C  0.66685700  0.68050751  0.09965891     0.02300
C3275       C  0.64288879  0.67036054  0.11569923    -0.18200
C3276       C  0.64191522  0.65420114  0.13582778     0.02300
C3277       C  0.66547578  0.64724329  0.13986489     0.02300
C3278       C  0.68949873  0.65757349  0.12370593    -0.18200
H3279       H  0.70741145  0.65221079  0.12656229     0.04400
H3280       H  0.62508610  0.67590420  0.11278960     0.04400
C3281       C  0.98996376  0.80932557  0.39730438     0.02300
C3282       C  0.52024533  0.81620241  0.39359429     0.02300
C3283       C  0.53525171  0.83035759  0.37283258    -0.18200
C3284       C  0.52289682  0.84251082  0.35710801     0.02300
C3285       C  0.99283092  0.83711998  0.36158021     0.02300
C3286       C  0.97656091  0.81956320  0.38105093    -0.18200
H3287       H  0.95327480  0.81437708  0.38390887     0.04400
H3288       H  0.55779231  0.83366471  0.36973473     0.04400
C3289       C  0.98191677  0.81398694  0.09841313     0.02300
C3290       C  0.51350677  0.83504918  0.09527258     0.02300
C3291       C  0.52922312  0.85812501  0.11184637    -0.18200
C3292       C  0.51452764  0.86082046  0.13152834     0.02300
C3293       C  0.98328605  0.83796031  0.13572862     0.02300
C3294       C  0.96754042  0.81512946  0.11885797    -0.18200
H3295       H  0.94359290  0.79810804  0.12147850    -0.06200
H3296       H  0.55339672  0.87435637  0.10930229     0.04400
C3297       C  0.54225025  0.86174408  0.33702857    -0.06100
C3298       C  0.52861690  0.85841795  0.31514127    -0.17200
C3299       C  0.54224887  0.88170847  0.29836144     0.11100
C3300       C  0.57312482  0.90575164  0.30119678    -0.06000
C3301       C  0.58905274  0.90465862  0.32079794    -0.17200
C3302       C  0.57343911  0.88534664  0.33957853     0.11200
S3303       S  0.51738185  0.88098604  0.27563594    -0.32200
S3304       S  0.59372626  0.89587230  0.36687819    -0.32200
H3305       H  0.56869864  0.89224767  0.37998124     0.29200
H3306       H  0.52890328  0.91294694  0.27587178     0.29200
H3307       H  0.50553552  0.83960799  0.31214670     0.19800
H3308       H  0.61293182  0.92216013  0.32296241     0.19800
C3309       C  0.53297917  0.88716351  0.14748346    -0.06100
C3310       C  0.56153940  0.89231205  0.15519598    -0.17200
C3311       C  0.57820841  0.91442929  0.17210667     0.11100
C3312       C  0.56464163  0.92932622  0.18358222    -0.06000
C3313       C  0.53668682  0.92505583  0.17522816    -0.17200
C3314       C  0.52243722  0.90645329  0.15590797     0.11200
S3315       S  0.61630613  0.92209083  0.17852530    -0.32200
S3316       S  0.99221126  0.90974400  0.14188983    -0.32200
H3317       H  0.99492385  0.89877483  0.12010693     0.29200
H3318       H  0.62794520  0.95259932  0.18604315     0.29200
H3319       H  0.57082250  0.87876778  0.14823325     0.19800
H3320       H  0.52660104  0.93733603  0.18317023     0.19800
C3321       C  0.65305019  0.56757418  0.31789458    -0.06100
C3322       C  0.62867006  0.56300030  0.33235849    -0.17200
C3323       C  0.63405415  0.58193994  0.35153510     0.11100
C3324       C  0.66003565  0.61146373  0.35138830    -0.06000
C3325       C  0.68532224  0.61590446  0.33821163    -0.17200
C3326       C  0.68267838  0.59253017  0.32332460     0.11200
S3327       S  0.61024685  0.56713886  0.37717131    -0.32200
S3328       S  0.71751190  0.59504359  0.31297511    -0.32200
H3329       H  0.70402479  0.56388354  0.30658161     0.29200
H3330       H  0.59007929  0.53773329  0.36801673     0.29200
H3331       H  0.60581815  0.54368569  0.32959764     0.19800
H3332       H  0.70732224  0.63674706  0.34041557     0.19800
C3333       C  0.66470296  0.62799773  0.16004957    -0.06100
C3334       C  0.65904897  0.63488016  0.18255235    -0.17200
C3335       C  0.65024833  0.61330086  0.20060119     0.11100
C3336       C  0.65225340  0.58649565  0.19745569    -0.06000
C3337       C  0.66271374  0.58219979  0.17600015    -0.17200
C3338       C  0.66684225  0.60120478  0.15700975     0.11200
S3339       S  0.63376309  0.61995953  0.22604181    -0.32200
S3340       S  0.67124841  0.58764511  0.12912166    -0.32200
H3341       H  0.65132702  0.59484687  0.11738258     0.29200
H3342       H  0.61207728  0.58881685  0.23020131     0.29200
H3343       H  0.65815910  0.65566560  0.18545358     0.19800
H3344       H  0.66437790  0.56178407  0.17332493     0.19800
C3345       C  0.97685597  0.84829170  0.34622025    -0.06100
C3346       C  0.94822637  0.82643484  0.33703304    -0.17200
C3347       C  0.93265794  0.83500124  0.32152434     0.11100
C3348       C  0.94730524  0.86552725  0.31302987    -0.06000
C3349       C  0.97556285  0.88754604  0.32262007    -0.17200
C3350       C  0.98939090  0.87965631  0.34017384     0.11200
S3351       S  0.89426431  0.80596515  0.31337485    -0.32200
S3352       S  0.52240794  0.91078614  0.35448207    -0.32200
H3353       H  0.51876770  0.89496260  0.37543629     0.29200
H3354       H  0.88390300  0.82645105  0.30826352     0.29200
H3355       H  0.93775267  0.80246865  0.34215009     0.19800
H3356       H  0.98636714  0.91132066  0.31692273     0.19800
C3357       C  0.93897159  0.85431691  0.19285951    -0.06100
C3358       C  0.96657067  0.85452420  0.19634296    -0.17200
C3359       C  0.97843449  0.84378057  0.17929043     0.11100
C3360       C  0.96601157  0.83833252  0.15666754    -0.06000
C3361       C  0.93726941  0.83584305  0.15362348    -0.17200
C3362       C  0.92285346  0.84189154  0.17186985     0.11200
S3363       S  0.50847290  0.83641557  0.18779033    -0.32200
S3364       S  0.88436474  0.83404796  0.16706706    -0.32200
H3365       H  0.87580960  0.82965027  0.19059675     0.29200
H3366       H  0.50459010  0.81692238  0.16901803     0.29200
H3367       H  0.97889594  0.86275511  0.21256052     0.19800
H3368       H  0.92626071  0.83000872  0.13678727     0.19800
C3369       C  0.87521094  0.95236113  0.31128185    -0.06100
C3370       C  0.89693571  0.97854453  0.32349102    -0.17200
C3371       C  0.88839955  0.99016772  0.34226589     0.11100
C3372       C  0.85698398  0.97785471  0.34730064    -0.06000
C3373       C  0.83529891  0.95135641  0.33532147    -0.17200
C3374       C  0.84410034  0.93806172  0.31788945     0.11200
S3375       S  0.91876693  0.51905142  0.35996199    -0.32200
S3376       S  0.81444200  0.90315512  0.30460287    -0.32200
H3377       H  0.83293472  0.89060279  0.29925855     0.29200
H3378       H  0.90113137  0.51329263  0.38016496     0.29200
H3379       H  0.92098311  0.98891324  0.31916371     0.19800
H3380       H  0.81118789  0.94121454  0.33932149     0.19800
C3381       C  0.85820463  0.97563863  0.15308174    -0.06100
C3382       C  0.83662476  0.94943865  0.16540564    -0.17200
C3383       C  0.84566755  0.93584191  0.18250149     0.11100
C3384       C  0.87680952  0.95007226  0.18905932    -0.06000
C3385       C  0.89842838  0.97618470  0.17668079    -0.17200
C3386       C  0.88966354  0.98765713  0.15784424     0.11200
S3387       S  0.81636306  0.90033516  0.19533020    -0.32200
S3388       S  0.91963943  0.51589823  0.13959503    -0.32200
H3389       H  0.90184432  0.50805173  0.11929165     0.29200
H3390       H  0.83524997  0.88787088  0.19948453     0.29200
H3391       H  0.81247785  0.93932612  0.16156946     0.19800
H3392       H  0.92248727  0.98679569  0.18102818     0.19800
C3393       C  0.87414602  0.54481047  0.34284992    -0.06100
C3394       C  0.90028040  0.57287253  0.34915653    -0.17200
C3395       C  0.92282812  0.59102396  0.33282837     0.11100
C3396       C  0.92075868  0.57975718  0.31000577    -0.06000
C3397       C  0.89355284  0.55293348  0.30338056    -0.17200
C3398       C  0.86959198  0.53670597  0.31909131     0.11200
S3399       S  0.95365047  0.62802816  0.34229551    -0.32200
S3400       S  0.83355963  0.00701769  0.30742301    -0.32200
H3401       H  0.81545990  0.00655363  0.32607794     0.29200
H3402       H  0.96080631  0.64167667  0.32015939     0.29200
H3403       H  0.90358296  0.58039577  0.36707270     0.19800
H3404       H  0.89078812  0.54456817  0.28571246     0.19800
C3405       C  0.91659290  0.57452651  0.19328051    -0.06100
C3406       C  0.92126980  0.58737253  0.17095761    -0.17200
C3407       C  0.90155223  0.57108996  0.15260003     0.11100
C3408       C  0.87476197  0.54223965  0.15696145    -0.06000
C3409       C  0.86790326  0.53179211  0.18000999    -0.17200
C3410       C  0.88907571  0.54661582  0.19787166     0.11200
S3411       S  0.91400477  0.58722386  0.12395928    -0.32200
S3412       S  0.88065765  0.02718293  0.22546719    -0.32200
H3413       H  0.91032481  0.53219957  0.22893623     0.29200
H3414       H  0.90386012  0.55900597  0.11257192     0.29200
H3415       H  0.94212796  0.60892494  0.16731863     0.19800
H3416       H  0.84695585  0.01042788  0.18380406     0.19800
C3417       C  0.58034778  0.63452396  0.30870843    -0.06100
C3418       C  0.60303592  0.66456260  0.31509204    -0.17200
C3419       C  0.62526899  0.66970483  0.33196783     0.11100
C3420       C  0.62284872  0.64456696  0.34497081    -0.06000
C3421       C  0.59888071  0.61500627  0.33913326    -0.17200
C3422       C  0.58026080  0.60954457  0.31980126     0.11200
S3423       S  0.65598956  0.70886531  0.33603932    -0.32200
S3424       S  0.55665760  0.57002195  0.31045842    -0.32200
H3425       H  0.55487745  0.57691908  0.28706604     0.29200
H3426       H  0.67806933  0.70113395  0.34238544     0.29200
H3427       H  0.60391796  0.68411570  0.30644877     0.19800
H3428       H  0.59348007  0.59569483  0.34978407     0.19800
C3429       C  0.61665488  0.64605991  0.15267367    -0.06100
C3430       C  0.59833214  0.61526757  0.15990811    -0.17200
C3431       C  0.57802494  0.60754690  0.17854701     0.11100
C3432       C  0.57317470  0.63040277  0.18844597    -0.06000
C3433       C  0.58946069  0.66056543  0.17985969    -0.17200
C3434       C  0.61185604  0.66890882  0.16280785     0.11200
S3435       S  0.55997671  0.56855508  0.18938503    -0.32200
S3436       S  0.63454914  0.70939278  0.15590262    -0.32200
H3437       H  0.66241112  0.70981326  0.15389688     0.29200
H3438       H  0.55660121  0.57553961  0.21240268     0.29200
H3439       H  0.60155238  0.59751694  0.15213624     0.19800
H3440       H  0.58571260  0.67811248  0.18738230     0.19800
C3441       C  0.66796383  0.74772364  0.05296734    -0.06100
C3442       C  0.64434244  0.71676223  0.05146486    -0.17200
C3443       C  0.64445120  0.69378549  0.06514278     0.11100
C3444       C  0.66866156  0.70172905  0.08096778    -0.06000
C3445       C  0.69292219  0.73231462  0.08177708    -0.17200
C3446       C  0.69270962  0.75536060  0.06832427     0.11200
S3447       S  0.61281067  0.65489799  0.06166305    -0.32200
S3448       S  0.72349280  0.79427186  0.07324418    -0.32200
H3449       H  0.70415596  0.80670673  0.07460186     0.29200
H3450       H  0.62698255  0.63971701  0.07141104     0.29200
H3451       H  0.62554359  0.71032164  0.03950827     0.19800
H3452       H  0.71124463  0.73872722  0.09419422     0.19800
C3453       C  0.57660471  0.82724060  0.05022151    -0.06100
C3454       C  0.57407505  0.85378478  0.04936797    -0.17200
C3455       C  0.55231970  0.85637498  0.06248572     0.11100
C3456       C  0.53177393  0.83147808  0.07672383    -0.06000
C3457       C  0.53304704  0.80426223  0.07661146    -0.17200
C3458       C  0.55540804  0.80201162  0.06395649     0.11200
S3459       S  0.55331310  0.89274349  0.06064747    -0.32200
S3460       S  0.55716938  0.76745175  0.06800434    -0.32200
H3461       H  0.58882378  0.78344786  0.07257621     0.29200
H3462       H  0.52562090  0.88404025  0.07190882     0.29200
H3463       H  0.58967644  0.87318148  0.03867564     0.19800
H3464       H  0.51805669  0.78542255  0.08798319     0.19800
C3465       C  0.79343204  0.96267708  0.08417190    -0.06100
C3466       C  0.76317914  0.95646020  0.08526963    -0.17200
C3467       C  0.73979842  0.93283398  0.07205823     0.11100
C3468       C  0.74673387  0.91542425  0.05640459    -0.06000
C3469       C  0.77718724  0.92192627  0.05527088    -0.17200
C3470       C  0.80041277  0.94514316  0.06886197     0.11200
S3471       S  0.70139640  0.92471747  0.07755339    -0.32200
S3472       S  0.83851831  0.95119803  0.06578597    -0.32200
H3473       H  0.85428772  0.98231379  0.07254758     0.29200
H3474       H  0.68868917  0.89254410  0.07825188     0.29200
H3475       H  0.75737549  0.96902391  0.09751827     0.19800
H3476       H  0.78314381  0.90903990  0.04347033     0.19800
C3477       C  0.67138634  0.74851398  0.44693551    -0.06100
C3478       C  0.64870206  0.71737037  0.45000880    -0.17200
C3479       C  0.64742948  0.69402728  0.43594624     0.11100
C3480       C  0.66943108  0.70170568  0.41825982    -0.06000
C3481       C  0.69240424  0.73259101  0.41534183    -0.17200
C3482       C  0.69338382  0.75602452  0.42911873     0.11200
S3483       S  0.61675412  0.65509433  0.44134443    -0.32200
S3484       S  0.72182167  0.79505628  0.42171265    -0.32200
H3485       H  0.70145265  0.80624742  0.42319262     0.29200
H3486       H  0.62938515  0.63949057  0.42994799     0.29200
H3487       H  0.63169453  0.71105068  0.46353989     0.19800
H3488       H  0.70889377  0.73869154  0.40144588     0.19800
C3489       C  0.58422710  0.82373721  0.44552625    -0.06100
C3490       C  0.57336039  0.79978037  0.42907174    -0.17200
C3491       C  0.55138421  0.79554744  0.41250201     0.11100
C3492       C  0.53920261  0.81524926  0.41265842    -0.06000
C3493       C  0.54939595  0.83869469  0.42938688    -0.17200
C3494       C  0.57182576  0.84331536  0.44573978     0.11200
S3495       S  0.54087553  0.76517556  0.39146167    -0.32200
S3496       S  0.58396647  0.87402198  0.46672913    -0.32200
H3497       H  0.56313945  0.88341124  0.46034355     0.29200
H3498       H  0.01748853  0.76691622  0.37998189     0.29200
H3499       H  0.58273920  0.78464604  0.42865737     0.19800
H3500       H  0.54064622  0.85432252  0.42892881     0.19800
C3501       C  0.79262151  0.96583044  0.41619853    -0.06100
C3502       C  0.80334559  0.95394131  0.43347432    -0.17200
C3503       C  0.78334473  0.93194765  0.44961862     0.11100
C3504       C  0.75146917  0.92086897  0.44844677    -0.06000
C3505       C  0.74099450  0.93357535  0.43157468    -0.17200
C3506       C  0.76091807  0.95522981  0.41528990     0.11200
S3507       S  0.80017585  0.91968407  0.47159612    -0.32200
S3508       S  0.74391283  0.96662222  0.39285974    -0.32200
H3509       H  0.76397424  0.96888408  0.37511206     0.29200
H3510       H  0.78049376  0.91812942  0.48943823     0.29200
H3511       H  0.82758459  0.96183802  0.43434266     0.19800
H3512       H  0.71672311  0.92536387  0.43023720     0.19800
C3513       C  0.57649744  0.74763856  0.94802732    -0.06100
C3514       C  0.57675910  0.75499524  0.92438313    -0.17200
C3515       C  0.55512153  0.73408602  0.90859510     0.11100
C3516       C  0.53278527  0.70421916  0.91609538    -0.06000
C3517       C  0.53198434  0.69689716  0.93967968    -0.17200
C3518       C  0.55276753  0.71825677  0.95572002     0.11200
S3519       S  0.55758542  0.74716423  0.87906234    -0.32200
S3520       S  0.54753958  0.70592019  0.98554594    -0.32200
H3521       H  0.54526629  0.73118048  0.99335020     0.29200
H3522       H  0.52671742  0.72728064  0.87333934     0.29200
H3523       H  0.59403452  0.77738949  0.91795339     0.19800
H3524       H  0.51535969  0.67400976  0.94566620     0.19800
C3525       C  0.67316267  0.96435870  0.92027807    -0.06100
C3526       C  0.65702394  0.95835057  0.94121138    -0.17200
C3527       C  0.65526650  0.93606939  0.95678201     0.11100
C3528       C  0.67030470  0.91954404  0.95144575    -0.06000
C3529       C  0.68773691  0.92690332  0.93102184    -0.17200
C3530       C  0.68940139  0.94902539  0.91547772     0.11200
S3531       S  0.63129080  0.92806976  0.98196675    -0.32200
S3532       S  0.71114885  0.95495260  0.88918226    -0.32200
H3533       H  0.71352188  0.98270049  0.88204592     0.29200
H3534       H  0.61688083  0.89583312  0.97986073     0.29200
H3535       H  0.64403904  0.96961150  0.94471751     0.19800
H3536       H  0.69978583  0.91484986  0.92686562     0.19800
C3537       C  0.78957784  0.82018681  0.58267953    -0.06100
C3538       C  0.80014707  0.83740801  0.56212716    -0.17200
C3539       C  0.78012981  0.83992074  0.54679436     0.11100
C3540       C  0.74834209  0.82396323  0.55155651    -0.06000
C3541       C  0.73762244  0.80528058  0.57149746    -0.17200
C3542       C  0.75777169  0.80320693  0.58704796     0.11200
S3543       S  0.79717317  0.86640835  0.52290253    -0.32200
S3544       S  0.74136470  0.77911303  0.61233432    -0.32200
H3545       H  0.76720843  0.77764853  0.61906165     0.29200
H3546       H  0.77960646  0.88055399  0.52626331     0.29200
H3547       H  0.82453569  0.85111800  0.55891771     0.19800
H3548       H  0.71330594  0.79247097  0.57520917     0.19800
C3549       C  0.78219528  0.81907132  0.91615603    -0.06100
C3550       C  0.79345500  0.83360046  0.93759472    -0.17200
C3551       C  0.77436160  0.83670715  0.95359607     0.11100
C3552       C  0.74292893  0.82440647  0.94832049    -0.06000
C3553       C  0.73146521  0.80813593  0.92742679    -0.17200
C3554       C  0.75057758  0.80521143  0.91145634     0.11200
S3555       S  0.79233221  0.85907019  0.97926603    -0.32200
S3556       S  0.73336930  0.78453134  0.88494271    -0.32200
H3557       H  0.75634655  0.77783547  0.87929915     0.29200
H3558       H  0.77843739  0.87709462  0.97726806     0.29200
H3559       H  0.81776978  0.84472495  0.94113542     0.19800
H3560       H  0.70736629  0.79781746  0.92330697     0.19800
C3561       C  0.67681791  0.91850842  0.55384263    -0.06100
C3562       C  0.66001363  0.93320565  0.54942664    -0.17200
C3563       C  0.66018514  0.95467644  0.56505951     0.11100
C3564       C  0.67842847  0.96272654  0.58530661    -0.06000
C3565       C  0.69596452  0.94883458  0.58938583    -0.17200
C3566       C  0.69574429  0.92730753  0.57384279     0.11200
S3567       S  0.63502724  0.96936210  0.55892258    -0.32200
S3568       S  0.72073967  0.91255747  0.58038178    -0.32200
H3569       H  0.72905757  0.91213491  0.55714579     0.29200
H3570       H  0.62668220  0.47010591  0.58205774     0.29200
H3571       H  0.64532358  0.92672336  0.53429966     0.19800
H3572       H  0.70980671  0.95466827  0.60495679     0.19800
C3573       C  0.57891444  0.74959274  0.55250620    -0.06100
C3574       C  0.56414959  0.71799579  0.54711959    -0.17200
C3575       C  0.54254316  0.69557278  0.56221398     0.11100
C3576       C  0.53432740  0.70467978  0.58289699    -0.06000
C3577       C  0.54789107  0.73625579  0.58771803    -0.17200
C3578       C  0.56968440  0.75867852  0.57277601     0.11200
S3579       S  0.52780327  0.65578582  0.55472668    -0.32200
S3580       S  0.58437643  0.79845405  0.58047918    -0.32200
H3581       H  0.58590150  0.80861491  0.55749887     0.29200
H3582       H  0.52786148  0.64580474  0.57750038     0.29200
H3583       H  0.57076622  0.71053605  0.53167322     0.19800
H3584       H  0.54178364  0.74349727  0.60353895     0.19800
C3585       C  0.91356829  0.86463403  0.80578118    -0.06100
C3586       C  0.88698395  0.83527931  0.80600742    -0.17200
C3587       C  0.86443701  0.82686424  0.82322649     0.11100
C3588       C  0.86927939  0.84759707  0.84154651    -0.06000
C3589       C  0.89692849  0.87579441  0.84227002    -0.17200
C3590       C  0.91796671  0.88532609  0.82403833     0.11200
S3591       S  0.83091056  0.78888330  0.82109106    -0.32200
S3592       S  0.95019261  0.92419631  0.82531884    -0.32200
H3593       H  0.95385364  0.92846215  0.80116434     0.29200
H3594       H  0.81233739  0.79236871  0.83733840     0.29200
H3595       H  0.88378759  0.81874330  0.79267415     0.19800
H3596       H  0.90205104  0.89087313  0.85705365     0.19800
C3597       C  0.56871558  0.92672865  0.81629199    -0.06100
C3598       C  0.58729181  0.91504964  0.82344124    -0.17200
C3599       C  0.61070064  0.93091578  0.83964824     0.11100
C3600       C  0.61420873  0.95800578  0.85021781    -0.06000
C3601       C  0.59294325  0.96719297  0.84512337    -0.17200
C3602       C  0.57111417  0.95267974  0.82772630     0.11200
S3603       S  0.63669528  0.91677802  0.84418007    -0.32200
S3604       S  0.54795598  0.96929938  0.82027575    -0.32200
H3605       H  0.54766445  0.96448011  0.79623031     0.29200
H3606       H  0.66313588  0.94573715  0.84729613     0.29200
H3607       H  0.58499364  0.89472215  0.81504549     0.19800
H3608       H  0.59461553  0.98711310  0.85374855     0.19800
C3609       C  0.63361687  0.96592107  0.66118414    -0.06100
C3610       C  0.60681838  0.93750324  0.65685346    -0.17200
C3611       C  0.58496985  0.92203220  0.67421823     0.11100
C3612       C  0.58777291  0.93682205  0.69574247    -0.06000
C3613       C  0.61520080  0.96449532  0.70037158    -0.17200
C3614       C  0.63909902  0.97728669  0.68420152     0.11200
S3615       S  0.55351477  0.88403071  0.66746392    -0.32200
S3616       S  0.67628240  0.50625705  0.69460641    -0.32200
H3617       H  0.69294917  0.50327690  0.67630980     0.29200
H3618       H  0.54740948  0.87352795  0.69054462     0.29200
H3619       H  0.60242055  0.92741788  0.63967949     0.19800
H3620       H  0.61840353  0.97599975  0.71688496     0.19800
C3621       C  0.93216075  0.87925819  0.68368788    -0.06100
C3622       C  0.93002032  0.90231044  0.67147843    -0.17200
C3623       C  0.91071195  0.89502020  0.65216187     0.11100
C3624       C  0.89055695  0.86370373  0.64657481    -0.06000
C3625       C  0.89383622  0.84093394  0.65809335    -0.17200
C3626       C  0.91507560  0.84849459  0.67593045     0.11200
S3627       S  0.91159664  0.92632723  0.63624426    -0.32200
S3628       S  0.91875995  0.81773094  0.68855696    -0.32200
H3629       H  0.95013143  0.83584876  0.69371090     0.29200
H3630       H  0.89879234  0.90965305  0.61569106     0.29200
H3631       H  0.94358371  0.92611661  0.67697263     0.19800
H3632       H  0.87916593  0.81688960  0.65352069     0.19800
C3633       C  0.55841641  0.63144447  0.81077460    -0.06100
C3634       C  0.56880567  0.63588809  0.83384256    -0.17200
C3635       C  0.55178035  0.63837945  0.85199786     0.11100
C3636       C  0.52558953  0.64073732  0.84701121    -0.06000
C3637       C  0.51592545  0.63740610  0.82372543    -0.17200
C3638       C  0.53047622  0.63030819  0.80615247     0.11200
S3639       S  0.56373859  0.63619519  0.88109451    -0.32200
S3640       S  0.51121633  0.61797109  0.77861349    -0.32200
H3641       H  0.52066062  0.59663679  0.77391464     0.29200
H3642       H  0.53411543  0.62124997  0.89064933     0.29200
H3643       H  0.58962285  0.63578070  0.83792908     0.19800
H3644       H  0.99649641  0.63954626  0.81901396     0.19800
C3645       C  0.64266441  0.55831064  0.80727805    -0.06100
C3646       C  0.64320841  0.53122188  0.80237130    -0.17200
C3647       C  0.65252127  0.51744967  0.81906202     0.11100
C3648       C  0.65579011  0.52713150  0.84248701    -0.06000
C3649       C  0.65489241  0.55402693  0.84744486    -0.17200
C3650       C  0.65048850  0.57067328  0.82997875     0.11200
S3651       S  0.66252267  0.98991600  0.80876363    -0.32200
S3652       S  0.65600760  0.60788157  0.83779877    -0.32200
H3653       H  0.66670277  0.62141221  0.81587515     0.29200
H3654       H  0.68363220  0.99540845  0.82659446     0.29200
H3655       H  0.63761316  0.52136736  0.78511991     0.19800
H3656       H  0.65825149  0.56261898  0.86507045     0.19800
C3657       C  0.64774239  0.56952341  0.68700452    -0.06100
C3658       C  0.62275232  0.54317230  0.67723880    -0.17200
C3659       C  0.62686730  0.52666938  0.65950012     0.11100
C3660       C  0.65684551  0.53453709  0.65303477    -0.06000
C3661       C  0.68173926  0.56165944  0.66211282    -0.17200
C3662       C  0.67743685  0.57968860  0.67841196     0.11200
S3663       S  0.59309809  0.49720633  0.64502599    -0.32200
S3664       S  0.71072837  0.61514320  0.68755474    -0.32200
H3665       H  0.69512912  0.63046769  0.69390843     0.29200
H3666       H  0.60755021  0.99815739  0.62397046     0.29200
H3667       H  0.59973255  0.53608185  0.68295707     0.19800
H3668       H  0.70482642  0.56864126  0.65666135     0.19800
C3669       C  0.56745066  0.64848682  0.69371833    -0.06100
C3670       C  0.57434377  0.67816719  0.68696263    -0.17200
C3671       C  0.55606231  0.68236205  0.67065930     0.11100
C3672       C  0.53227093  0.65649678  0.65890178    -0.06000
C3673       C  0.52669223  0.62718326  0.66514205    -0.17200
C3674       C  0.54198287  0.62277711  0.68345683     0.11200
S3675       S  0.56404401  0.72116081  0.66595548    -0.32200
S3676       S  0.52832162  0.58347178  0.69234055    -0.32200
H3677       H  0.53722950  0.59040672  0.71569300     0.29200
H3678       H  0.53365322  0.71276514  0.66080832     0.29200
H3679       H  0.59380522  0.69816141  0.69459439     0.19800
H3680       H  0.01052998  0.60736835  0.65563805     0.19800
C3681       C  0.91737777  0.56937924  0.81464214    -0.06100
C3682       C  0.93461305  0.56075446  0.82856137    -0.17200
C3683       C  0.95322365  0.57976492  0.84656070     0.11100
C3684       C  0.95550311  0.60858991  0.85027718    -0.06000
C3685       C  0.93737989  0.61659587  0.83688610    -0.17200
C3686       C  0.91815416  0.59723888  0.81938883     0.11200
S3687       S  0.97332364  0.56596802  0.86403931    -0.32200
S3688       S  0.89576738  0.60972238  0.80340766    -0.32200
H3689       H  0.87183587  0.58011802  0.79749170     0.29200
H3690       H  0.97500457  0.58251641  0.88416228     0.29200
H3691       H  0.93372515  0.53913102  0.82521739     0.19800
H3692       H  0.93860944  0.63845016  0.83989214     0.19800
C3693       C  0.83244772  0.91777415  0.80975623    -0.06100
C3694       C  0.80476824  0.88983213  0.81273584    -0.17200
C3695       C  0.80243441  0.86755520  0.82858826     0.11100
C3696       C  0.82766926  0.87415801  0.84302574    -0.06000
C3697       C  0.85390568  0.90343211  0.84175619    -0.17200
C3698       C  0.85741268  0.92444468  0.82447082     0.11200
S3699       S  0.76669249  0.83139821  0.82942016    -0.32200
S3700       S  0.89451705  0.95884486  0.82069649    -0.32200
H3701       H  0.90939154  0.95383682  0.83933379     0.29200
H3702       H  0.77893194  0.81332656  0.83686266     0.29200
H3703       H  0.78530474  0.88479740  0.80189176     0.19800
H3704       H  0.87184754  0.90987006  0.85435856     0.19800
C3705       C  0.92598076  0.57830394  0.69207787    -0.06100
C3706       C  0.93761335  0.56877148  0.67374837    -0.17200
C3707       C  0.95343329  0.58822873  0.65518611     0.11100
C3708       C  0.96274877  0.61982364  0.65661434    -0.06000
C3709       C  0.95140278  0.62973703  0.67480448    -0.17200
C3710       C  0.93170135  0.60899160  0.69169322     0.11200
S3711       S  0.95995149  0.57059058  0.63013488    -0.32200
S3712       S  0.91325989  0.62271393  0.71108651    -0.32200
H3713       H  0.88683407  0.59382450  0.71470909     0.29200
H3714       H  0.98163802  0.59734155  0.61855624     0.29200
H3715       H  0.93315066  0.54532805  0.67332697     0.19800
H3716       H  0.95667426  0.65346070  0.67514438     0.19800
C3717       C  0.83903991  0.87955766  0.65346998    -0.06100
C3718       C  0.85249246  0.88161006  0.67528680    -0.17200
C3719       C  0.85841806  0.90550219  0.69063198     0.11100
C3720       C  0.84233519  0.92147996  0.68821644    -0.06000
C3721       C  0.82443300  0.91588420  0.66827467    -0.17200
C3722       C  0.82607485  0.89864127  0.64982864     0.11200
S3723       S  0.88765566  0.91546561  0.71234560    -0.32200
S3724       S  0.81436992  0.90534191  0.62188330    -0.32200
H3725       H  0.83735190  0.90365169  0.60942420     0.29200
H3726       H  0.89743090  0.94706797  0.71289547     0.29200
H3727       H  0.86059309  0.86623027  0.67994717     0.19800
H3728       H  0.81065241  0.92654278  0.66630001     0.19800
C3729       C  0.92028184  0.66880304  0.55191053    -0.06100
C3730       C  0.92363176  0.64283927  0.55264034    -0.17200
C3731       C  0.94490659  0.64156455  0.56744870     0.11100
C3732       C  0.96431261  0.66739841  0.58144282    -0.06000
C3733       C  0.96181138  0.69387817  0.57996194    -0.17200
C3734       C  0.94001066  0.69481570  0.56548171     0.11200
S3735       S  0.94444460  0.60544008  0.56843533    -0.32200
S3736       S  0.93817692  0.72965955  0.56538077    -0.32200
H3737       H  0.92880773  0.72738063  0.54213631     0.29200
H3738       H  0.97189243  0.61555960  0.58049137     0.29200
H3739       H  0.90855120  0.62278272  0.54231654     0.19800
H3740       H  0.97606341  0.71351192  0.59093092     0.19800
C3741       C  0.81997782  0.57760519  0.44852409    -0.06100
C3742       C  0.80350817  0.57246956  0.42782729    -0.17200
C3743       C  0.80247023  0.55185853  0.41103378     0.11100
C3744       C  0.81747056  0.53503268  0.41533926    -0.06000
C3745       C  0.83208753  0.53862631  0.43677965    -0.17200
C3746       C  0.83348312  0.55961603  0.45336055     0.11200
S3747       S  0.78297637  0.04984666  0.38423074    -0.32200
S3748       S  0.85316577  0.56266192  0.48018313    -0.32200
H3749       H  0.83465197  0.56966888  0.49403636     0.29200
H3750       H  0.78526543  0.02632425  0.37321133     0.29200
H3751       H  0.79281616  0.58596974  0.42409921     0.19800
H3752       H  0.84387370  0.52609762  0.44017142     0.19800
C3753       C  0.75207407  0.58080906  0.55259639    -0.06100
C3754       C  0.76182464  0.56602438  0.56814509    -0.17200
C3755       C  0.74109286  0.54254918  0.58296529     0.11100
C3756       C  0.70966788  0.53317970  0.58213652    -0.06000
C3757       C  0.69983975  0.54743476  0.56617539    -0.17200
C3758       C  0.72053058  0.57081513  0.55136117     0.11200
S3759       S  0.75651993  0.52680240  0.60340542    -0.32200
S3760       S  0.70590860  0.58940021  0.53307095    -0.32200
H3761       H  0.71254576  0.57891341  0.51249862     0.29200
H3762       H  0.73740797  0.52394403  0.62206522     0.29200
H3763       H  0.78592240  0.57334293  0.56915560     0.19800
H3764       H  0.67600802  0.54125277  0.56601196     0.19800
C3765       C  0.97085099  0.78943649  0.41688556    -0.06100
C3766       C  0.96424025  0.75880485  0.41765628    -0.17200
C3767       C  0.94237787  0.73721019  0.43298222     0.11100
C3768       C  0.92581517  0.74596462  0.44792253    -0.06000
C3769       C  0.93337876  0.77705089  0.44768194    -0.17200
C3770       C  0.95570643  0.79876275  0.43262871     0.11200
S3771       S  0.93530574  0.69844170  0.43112626    -0.32200
S3772       S  0.96333459  0.83785624  0.43423056    -0.32200
H3773       H  0.99258012  0.85212956  0.42416139     0.29200
H3774       H  0.94492962  0.69875696  0.45409196     0.29200
H3775       H  0.97526196  0.75118672  0.40547266     0.19800
H3776       H  0.92161377  0.78460080  0.45923392     0.19800
C3777       C  0.75574647  0.67909942  0.45094975    -0.06100
C3778       C  0.76467703  0.69320584  0.42909360    -0.17200
C3779       C  0.74305636  0.69184037  0.41324197     0.11100
C3780       C  0.71169387  0.67617323  0.41934086    -0.06000
C3781       C  0.70305777  0.66402090  0.44178078    -0.17200
C3782       C  0.72469989  0.66548858  0.45765921     0.11200
S3783       S  0.75672665  0.70879235  0.38498332    -0.32200
S3784       S  0.71116127  0.64907303  0.48603701    -0.32200
H3785       H  0.73846493  0.66922796  0.49778694     0.29200
H3786       H  0.73196080  0.71273415  0.37933070     0.29200
H3787       H  0.78844550  0.70393650  0.42383797     0.19800
H3788       H  0.67911003  0.65200036  0.44661944     0.19800
C3789       C  0.83541061  0.79876292  0.57916626    -0.06100
C3790       C  0.81116543  0.76811180  0.58046512    -0.17200
C3791       C  0.81040710  0.74505789  0.56644280     0.11100
C3792       C  0.83471797  0.75249200  0.55089128    -0.06000
C3793       C  0.85836758  0.78330504  0.54887861    -0.17200
C3794       C  0.85899848  0.80647034  0.56275738     0.11200
S3795       S  0.77764257  0.70672403  0.56908730    -0.32200
S3796       S  0.89076310  0.84517658  0.55881797    -0.32200
H3797       H  0.87594984  0.86047127  0.56711581     0.29200
H3798       H  0.77684388  0.69884236  0.54557680     0.29200
H3799       H  0.79300850  0.76184911  0.59296068     0.19800
H3800       H  0.87688942  0.78927918  0.53673888     0.19800
C3801       C  0.70713094  0.53380686  0.91696564    -0.06100
C3802       C  0.73800158  0.54264313  0.91494799    -0.17200
C3803       C  0.76028236  0.56614389  0.92877987     0.11100
C3804       C  0.75148284  0.58070304  0.94565437    -0.06000
C3805       C  0.72031913  0.57133645  0.94782646    -0.17200
C3806       C  0.69814721  0.54825007  0.93352990     0.11200
S3807       S  0.79959268  0.57799661  0.92252220    -0.32200
S3808       S  0.65853127  0.03802165  0.93581339    -0.32200
H3809       H  0.66246248  0.05822187  0.95408534     0.29200
H3810       H  0.80991120  0.60972719  0.92352581     0.29200
H3811       H  0.74500742  0.53233135  0.90162012     0.19800
H3812       H  0.71336383  0.58228132  0.96065054     0.19800
C3813       C  0.71303633  0.67837664  0.08514371    -0.06100
C3814       C  0.70214956  0.66488498  0.06330866    -0.17200
C3815       C  0.72153365  0.66341662  0.04671821     0.11100
C3816       C  0.75275920  0.67482447  0.05215403    -0.06000
C3817       C  0.76387320  0.68965594  0.07366471    -0.17200
C3818       C  0.74462769  0.69203258  0.08991893     0.11200
S3819       S  0.70420006  0.64463344  0.01975511    -0.32200
S3820       S  0.76182454  0.71264049  0.11644652    -0.32200
H3821       H  0.73968393  0.72088729  0.12109217     0.29200
H3822       H  0.72259072  0.67132275  0.00655176     0.29200
H3823       H  0.67798640  0.65417988  0.05942368     0.19800
H3824       H  0.78785466  0.69948092  0.07797811     0.19800
C3825       C  0.96299829  0.66911038  0.91916410    -0.06100
C3826       C  0.95210598  0.64986760  0.93869173    -0.17200
C3827       C  0.93086386  0.65062769  0.95391418     0.11100
C3828       C  0.91958942  0.67069683  0.94928952    -0.06000
C3829       C  0.93176862  0.69112796  0.93040010    -0.17200
C3830       C  0.95287634  0.69021293  0.91513200     0.11200
S3831       S  0.91893023  0.62631689  0.97941686    -0.32200
S3832       S  0.96492409  0.71570115  0.89038324    -0.32200
H3833       H  0.46833144  0.69625825  0.87480546     0.29200
H3834       H  0.93668079  0.61251763  0.97548276     0.29200
H3835       H  0.95967200  0.63351733  0.94157317     0.19800
H3836       H  0.92357032  0.70682884  0.92676456     0.19800
C3837       C  0.81992847  0.57549700  0.05145444    -0.06100
C3838       C  0.80704482  0.57269991  0.07361703    -0.17200
C3839       C  0.80499779  0.55091793  0.08979343     0.11100
C3840       C  0.81723580  0.53191957  0.08440587    -0.06000
C3841       C  0.82807147  0.53300221  0.06180020    -0.17200
C3842       C  0.82889163  0.55388283  0.04519444     0.11200
S3843       S  0.78705364  0.54896792  0.11728208    -0.32200
S3844       S  0.84334548  0.55268639  0.01692792    -0.32200
H3845       H  0.81663131  0.54766240  0.00552035     0.29200
H3846       H  0.77877260  0.51838553  0.12239119     0.29200
H3847       H  0.79870889  0.58788632  0.07860354     0.19800
H3848       H  0.83732110  0.51844313  0.05730911     0.19800
C3849       C  0.91898704  0.74609039  0.05037147    -0.06100
C3850       C  0.93321093  0.77753471  0.04477875    -0.17200
C3851       C  0.95444014  0.80011549  0.05975360     0.11100
C3852       C  0.96267342  0.79124083  0.08053473    -0.06000
C3853       C  0.94960479  0.75982463  0.08563776    -0.17200
C3854       C  0.92821903  0.73720953  0.07074287     0.11200
S3855       S  0.96822189  0.83971093  0.05208295    -0.32200
S3856       S  0.91413848  0.69757853  0.07862008    -0.32200
H3857       H  0.91329618  0.68753038  0.05570480     0.29200
H3858       H  0.96839452  0.84987412  0.07483012     0.29200
H3859       H  0.92641081  0.78473930  0.02927535     0.19800
H3860       H  0.95591205  0.75289893  0.10153155     0.19800
C3861       C  0.82436893  0.79272060  0.91598711    -0.06100
C3862       C  0.79896426  0.76286457  0.91762531    -0.17200
C3863       C  0.79933285  0.74045332  0.93189360     0.11100
C3864       C  0.82553809  0.74803443  0.94566712    -0.06000
C3865       C  0.85054015  0.77842595  0.94453970    -0.17200
C3866       C  0.85020081  0.80067700  0.93003473     0.11200
S3867       S  0.76640444  0.70217721  0.93007193    -0.32200
S3868       S  0.88360067  0.83882825  0.93014179    -0.32200
H3869       H  0.86849641  0.85455904  0.92346773     0.29200
H3870       H  0.78391926  0.68800376  0.92653787     0.29200
H3871       H  0.77924712  0.75640405  0.90666582     0.19800
H3872       H  0.87065144  0.78503784  0.95506791     0.19800
loop_ 
_geom_bond_atom_site_label_1 
_geom_bond_atom_site_label_2 
_geom_bond_distance 
_geom_bond_site_symmetry_2 
_ccdc_geom_bond_type 
Zn1           O5   1.954   1_554  S
Zn1           O6   2.039       .  S
Zn1          O10   2.020       .  S
Zn1          O17   2.011       .  S
Zn2           O5   1.957       .  S
Zn2           O7   2.006       .  S
Zn2           O9   2.036   1_556  S
Zn2          O13   2.028       .  S
Zn3           O5   1.961       .  S
Zn3           O8   2.029   1_556  S
Zn3          O11   2.032       .  S
Zn3          O14   2.024       .  S
Zn4           O5   1.973       .  S
Zn4          O12   2.054       .  S
Zn4          O15   2.039       .  S
Zn4          O16   2.026   1_556  S
O6           C18   1.276       .  A
O7           C19   1.273       .  A
O8           C20   1.274       .  A
O9           C18   1.273       .  A
O10          C20   1.274       .  A
O11          C19   1.277       .  A
O12          C21   1.279       .  A
O13          C22   1.276       .  A
O14          C21   1.273       .  A
O15          C22   1.276       .  A
O16          C23   1.276       .  A
O17          C23   1.274       .  A
C18         C933   1.503       .  S
C19         C900   1.485       .  S
C20         C912   1.493       .  S
C21         C960   1.500       .  S
C22         C924   1.490       .  S
C23         C945   1.483       .  S
Zn24         O28   1.962       .  S
Zn24         O29   2.033       .  S
Zn24         O33   2.040       .  S
Zn24         O40   2.049       .  S
Zn25         O28   1.967       .  S
Zn25         O30   2.036       .  S
Zn25         O32   2.018       .  S
Zn25         O36   2.036       .  S
Zn26         O28   1.959       .  S
Zn26         O31   2.029       .  S
Zn26         O34   2.038       .  S
Zn26         O37   2.029       .  S
Zn27         O28   1.960       .  S
Zn27         O35   2.017       .  S
Zn27         O38   2.018       .  S
Zn27         O39   2.012       .  S
O29          C41   1.277       .  A
O30          C42   1.276       .  A
O31          C43   1.274       .  A
O32          C41   1.274       .  A
O33          C43   1.276       .  A
O34          C42   1.275       .  A
O35          C44   1.274       .  A
O36          C45   1.275       .  A
O37          C44   1.276       .  A
O38          C45   1.274       .  A
O39          C46   1.271       .  A
O40          C46   1.277       .  A
C41         C888   1.478       .  S
C42         C864   1.500       .  S
C43         C825   1.482       .  S
C44         C837   1.479       .  S
C45         C873   1.480       .  S
C46         C849   1.485       .  S
N47          C52   1.350       .  A
N47        C1019   1.350       .  A
N47          H79   1.039       .  S
N48          C55   1.351       .  A
N48          C56   1.353       .  A
N49          C54   1.356       .  A
N49        C1021   1.357       .  A
N49          H80   1.039       .  S
N50          C57   1.356       .  A
N50          C58   1.353       .  A
C51        N1015   1.350   1_545  A
C51          C59   1.386       .  A
C51          C67   1.410       .  A
C52          C68   1.410       .  A
C52          C60   1.387       .  A
C53        N1017   1.357   1_545  A
C53          C61   1.384       .  A
C53          C70   1.422       .  A
C54          C69   1.424       .  A
C54          C62   1.390       .  A
C55          C67   1.414       .  A
C55          C63   1.381       .  A
C56          C70   1.416       .  A
C56          C64   1.386       .  A
C57          C65   1.385       .  A
C57          C68   1.416       .  A
C58          C66   1.389       .  A
C58          C69   1.422       .  A
C59        C1028   1.377   1_545  A
C59          H71   1.082       .  S
C60        C1027   1.377       .  A
C60          H72   1.082       .  S
C61        C1030   1.371   1_545  A
C61          H73   1.082       .  S
C62        C1029   1.371       .  A
C62          H74   1.076       .  S
C63          C64   1.373       .  A
C63          H75   1.079       .  S
C64          H76   1.082       .  S
C65          C66   1.368       .  A
C65          H77   1.080       .  S
C66          H78   1.081       .  S
C67         C777   1.490       .  S
C68         C789   1.495       .  S
C69         C816   1.502       .  S
C70         C801   1.508       .  S
N81          C86   1.352       .  A
N81          C85   1.354       .  A
N81         H113   1.043       .  S
N82          C89   1.351       .  A
N82          C90   1.350       .  A
N83          C88   1.355       .  A
N83          C87   1.356       .  A
N83         H114   1.037       .  S
N84          C91   1.352       .  A
N84          C92   1.350       .  A
C85          C93   1.388       .  A
C85         C101   1.417       .  A
C86         C102   1.414       .  A
C86          C94   1.386       .  A
C87          C95   1.389       .  A
C87         C104   1.424       .  A
C88         C103   1.419       .  A
C88          C96   1.387       .  A
C89         C101   1.418       .  A
C89          C97   1.386       .  A
C90         C104   1.414       .  A
C90          C98   1.386       .  A
C91          C99   1.386       .  A
C91         C102   1.416       .  A
C92         C100   1.386       .  A
C92         C103   1.414       .  A
C93          C94   1.376       .  A
C93         H105   1.082       .  S
C94         H106   1.082       .  S
C95          C96   1.371       .  A
C95         H107   1.082       .  S
C96         H108   1.082       .  S
C97          C98   1.377       .  A
C97         H109   1.082       .  S
C98         H110   1.080       .  S
C99         C100   1.373       .  A
C99         H111   1.081       .  S
C100        H112   1.081       .  S
C101        C729   1.505       .  S
C102        C741   1.501       .  S
C103        C753   1.489       .  S
C104        C765   1.497       .  S
N115        C119   1.355       .  A
N115       C2056   1.353       .  A
N115        H147   1.038       .  S
N116        C123   1.355       .  A
N116        C124   1.351       .  A
N117        C121   1.355       .  A
N117       C2058   1.358       .  A
N117        H148   1.040       .  S
N118        C125   1.349       .  A
N118        C126   1.352       .  A
C119        C127   1.389       .  A
C119        C135   1.421       .  A
C120       N2051   1.353   1_455  A
C120        C136   1.411       .  A
C120        C128   1.384       .  A
C121        C129   1.387       .  A
C121        C138   1.417       .  A
C122       N2053   1.358       .  A
C122        C137   1.421       .  A
C122        C130   1.385       .  A
C123        C135   1.422       .  A
C123        C131   1.386       .  A
C124        C138   1.421       .  A
C124        C132   1.386       .  A
C125        C133   1.386       .  A
C125        C136   1.414       .  A
C126        C134   1.386       .  A
C126        C137   1.416       .  A
C127       C2064   1.371       .  A
C127        H139   1.082       .  S
C128       C2063   1.371   1_455  A
C128        H140   1.082       .  S
C129       C2066   1.367       .  A
C129        H141   1.080       .  S
C130       C2065   1.367   1_455  A
C130        H142   1.079       .  S
C131        C132   1.375       .  A
C131        H143   1.081       .  S
C132        H144   1.082       .  S
C133        C134   1.369       .  A
C133        H145   1.080       .  S
C134        H146   1.081       .  S
C135        C681   1.503       .  S
C136        C693   1.485       .  S
C137        C708   1.505       .  S
C138        C717   1.491       .  S
C149        C828   1.487       .  S
C149        C154   1.405       .  A
C149       C2086   1.418       .  A
C150        C672   1.491       .  S
C150        C151   1.408       .  A
C150       C2085   1.418   1_455  A
C151        C152   1.410       .  A
C151        H156   1.084       .  S
C152        C768   1.502       .  S
C152       C2089   1.422   1_455  A
C153        C804   1.486       .  S
C153        C154   1.402       .  A
C153       C2088   1.422       .  A
C154        H155   1.085       .  S
C157        C852   1.483       .  S
C157        C162   1.398       .  A
C157       C1126   1.413   1_545  A
C158        C660   1.487       .  S
C158        C159   1.407       .  A
C158       C1125   1.413       .  A
C159        C160   1.411       .  A
C159        H164   1.084       .  S
C160        C705   1.501       .  S
C160       C1129   1.426       .  A
C161        C756   1.490       .  S
C161        C162   1.401       .  A
C161       C1128   1.426   1_545  A
C162        H163   1.085       .  S
C165        C645   1.482       .  S
C165        C166   1.415       .  A
C165        C170   1.403       .  A
C166        C957   1.491       .  S
C166        C167   1.409       .  A
C167        C168   1.407       .  A
C167        H172   1.084       .  S
C168        C684   1.490       .  S
C168        C169   1.420       .  A
C169        C792   1.489       .  S
C169        C170   1.399       .  A
C170        H171   1.085       .  S
C173        C885   1.488       .  S
C173        C174   1.409       .  A
C173        C178   1.400       .  A
C174        C633   1.484       .  S
C174        C175   1.402       .  A
C175        C176   1.408       .  A
C175        H180   1.082       .  S
C176        C813   1.515       .  S
C176        C177   1.432       .  A
C177        C720   1.486       .  S
C177        C178   1.407       .  A
C178        H179   1.085       .  S
C181        C621   1.478       .  S
C181        C186   1.399       .  A
C181       C1150   1.407       .  A
C182        C897   1.476       .  S
C182        C183   1.400       .  A
C182       C1149   1.407   1_545  A
C183        C184   1.406       .  A
C183        H188   1.084       .  S
C184        C744   1.501       .  S
C184       C1153   1.426   1_545  A
C185        C696   1.487       .  S
C185        C186   1.404       .  A
C185       C1152   1.426       .  A
C186        H187   1.084       .  S
C189        C921   1.485       .  S
C189        C194   1.401       .  A
C189       C2126   1.416       .  A
C190        C612   1.496       .  S
C190        C191   1.410       .  A
C190       C2125   1.416   1_455  A
C191        C192   1.413       .  A
C191        H196   1.083       .  S
C192        C732   1.507       .  S
C192       C2129   1.424   1_455  A
C193        C780   1.486       .  S
C193        C194   1.403       .  A
C193       C2128   1.424       .  A
C194        H195   1.085       .  S
Zn197       O201   1.958       .  S
Zn197       O202   2.020       .  S
Zn197       O206   2.020       .  S
Zn197       O213   2.037       .  S
Zn198       O201   1.975       .  S
Zn198       O203   2.041       .  S
Zn198       O205   2.051       .  S
Zn198       O209   2.043       .  S
Zn199       O201   1.970       .  S
Zn199       O204   2.026       .  S
Zn199       O207   2.054       .  S
Zn199       O210   2.037       .  S
Zn200       O201   1.964       .  S
Zn200       O208   2.027       .  S
Zn200       O211   1.996       .  S
Zn200       O212   2.043       .  S
O202        C214   1.274       .  A
O203        C215   1.276       .  A
O204        C216   1.275       .  A
O205        C214   1.278       .  A
O206        C216   1.275       .  A
O207        C215   1.278       .  A
O208        C217   1.275       .  A
O209        C218   1.278       .  A
O210        C217   1.276       .  A
O211        C218   1.272       .  A
O212        C219   1.275       .  A
O213        C219   1.275       .  A
C214        C657   1.491       .  S
C215        C600   1.498       .  S
C216        C636   1.486       .  S
C217        C573   1.493       .  S
C218        C585   1.484       .  S
C219        C669   1.495       .  S
Zn220       O224   1.956   1_556  S
Zn220       O225   2.023       .  S
Zn220       O229   2.027       .  S
Zn220       O236   2.041       .  S
Zn221       O224   1.964       .  S
Zn221       O226   2.047       .  S
Zn221       O228   2.016   1_554  S
Zn221       O232   2.006       .  S
Zn222       O224   1.961       .  S
Zn222       O227   2.020   1_554  S
Zn222       O230   2.025       .  S
Zn222       O233   2.007       .  S
Zn223       O224   1.970       .  S
Zn223       O231   2.025       .  S
Zn223       O234   2.040       .  S
Zn223       O235   2.035   1_554  S
O225        C237   1.276       .  A
O226        C238   1.277       .  A
O227        C239   1.273       .  A
O228        C237   1.273       .  A
O229        C239   1.276       .  A
O230        C238   1.273       .  A
O231        C240   1.274       .  A
O232        C241   1.272       .  A
O233        C240   1.275       .  A
O234        C241   1.277       .  A
O235        C242   1.273       .  A
O236        C242   1.277       .  A
C237        C648   1.487       .  S
C238        C564   1.498       .  S
C239        C624   1.485       .  S
C240        C549   1.488       .  S
C241        C537   1.489       .  S
C242        C609   1.506       .  S
N243        C248   1.357       .  A
N243       C2183   1.358   1_455  A
N243        H275   1.041       .  S
N244        C251   1.346       .  A
N244        C252   1.349       .  A
N245        C250   1.350   1_655  A
N245       C2185   1.353       .  A
N245        H276   1.041   1_655  S
N246        C253   1.353       .  A
N246        C254   1.352       .  A
C247       N2179   1.358       .  A
C247        C255   1.385       .  A
C247        C263   1.423       .  A
C248        C264   1.426       .  A
C248        C256   1.389       .  A
C249       N2181   1.353       .  A
C249        C257   1.386       .  A
C249        C266   1.416       .  A
C250        C265   1.410       .  A
C250        C258   1.387       .  A
C251        C263   1.411       .  A
C251        C259   1.387       .  A
C252        C266   1.409       .  A
C252        C260   1.384       .  A
C253        C261   1.387       .  A
C253        C264   1.416       .  A
C254        C262   1.385       .  A
C254        C265   1.416       .  A
C255       C2192   1.374       .  A
C255        H267   1.081       .  S
C256       C2191   1.374   1_455  A
C256        H268   1.080       .  S
C257       C2194   1.372       .  A
C257        H269   1.079       .  S
C258       C2193   1.372   1_455  A
C258        H270   1.080       .  S
C259        C260   1.377       .  A
C259        H271   1.082       .  S
C260        H272   1.082       .  S
C261        C262   1.373       .  A
C261        H273   1.081       .  S
C262        H274   1.081       .  S
C263        C492   1.501       .  S
C264        C513   1.501       .  S
C265        C528   1.486       .  S
C266        C501   1.496       .  S
N277        C282   1.354       .  A
N277        C281   1.355       .  A
N277        H309   1.035       .  S
N278        C285   1.351       .  A
N278        C286   1.351       .  A
N279        C284   1.357       .  A
N279        C283   1.356       .  A
N279        H310   1.040       .  S
N280        C287   1.355       .  A
N280        C288   1.354       .  A
C281        C289   1.387       .  A
C281        C297   1.419       .  A
C282        C298   1.420       .  A
C282        C290   1.388       .  A
C283        C291   1.385       .  A
C283        C300   1.422       .  A
C284        C299   1.420       .  A
C284        C292   1.387       .  A
C285        C297   1.416       .  A
C285        C293   1.387       .  A
C286        C300   1.415       .  A
C286        C294   1.386       .  A
C287        C295   1.386       .  A
C287        C298   1.420       .  A
C288        C296   1.385       .  A
C288        C299   1.420       .  A
C289        C290   1.368       .  A
C289        H301   1.081       .  S
C290        H302   1.081       .  S
C291        C292   1.371       .  A
C291        H303   1.078       .  S
C292        H304   1.080       .  S
C293        C294   1.369       .  A
C293        H305   1.080       .  S
C294        H306   1.082       .  S
C295        C296   1.373       .  A
C295        H307   1.082       .  S
C296        H308   1.081       .  S
C297        C444   1.491       .  S
C298        C465   1.494       .  S
C299        C480   1.500       .  S
C300        C453   1.502       .  S
C311        C840   1.483       .  S
C311        C316   1.406       .  A
C311       C1280   1.417   1_545  A
C312        C597   1.495       .  S
C312        C313   1.405       .  A
C312       C1279   1.417       .  A
C313        C314   1.409       .  A
C313        H318   1.084       .  S
C314        C468   1.493       .  S
C314       C1283   1.424       .  A
C315        C489   1.499       .  S
C315        C316   1.404       .  A
C315       C1282   1.424   1_545  A
C316        H317   1.084       .  S
N319        C323   1.360   1_565  A
N319       C1292   1.361       .  A
N319        H351   1.037       .  S
N320        C327   1.353       .  A
N320        C328   1.356       .  A
N321        C325   1.352       .  A
N321       C1294   1.354   1_545  A
N321        H352   1.039       .  S
N322        C329   1.351       .  A
N322        C330   1.351       .  A
C323        C331   1.390   1_545  A
C323        C339   1.434       .  A
C324       N1287   1.361       .  A
C324        C340   1.429       .  A
C324        C332   1.386       .  A
C325        C333   1.386       .  A
C325        C342   1.415       .  A
C326       N1289   1.354       .  A
C326        C341   1.417       .  A
C326        C334   1.389       .  A
C327        C339   1.427       .  A
C327        C335   1.391       .  A
C328        C342   1.416       .  A
C328        C336   1.379       .  A
C329        C337   1.384       .  A
C329        C340   1.413       .  A
C330        C338   1.388       .  A
C330        C341   1.417       .  A
C331       C1300   1.366       .  A
C331        H343   1.080   1_565  S
C332       C1299   1.366       .  A
C332        H344   1.080       .  S
C333       C1302   1.369   1_545  A
C333        H345   1.082       .  S
C334       C1301   1.369       .  A
C334        H346   1.080       .  S
C335        C336   1.368       .  A
C335        H347   1.076       .  S
C336        H348   1.082       .  S
C337        C338   1.372       .  A
C337        H349   1.082       .  S
C338        H350   1.080       .  S
C339        C417   1.508       .  S
C340        C396   1.511       .  S
C341        C408   1.491       .  S
C342        C432   1.502       .  S
C353        C936   1.496       .  S
C353        C358   1.407       .  A
C353       C1322   1.418   1_545  A
C354        C561   1.491       .  S
C354        C355   1.408       .  A
C354       C1321   1.418       .  A
C355        C356   1.407       .  A
C355        H360   1.084       .  S
C356        C477   1.500       .  S
C356       C1325   1.423       .  A
C357        C504   1.496       .  S
C357        C358   1.405       .  A
C357       C1324   1.423   1_545  A
C358        H359   1.083       .  S
C361        C576   1.484       .  S
C361        C362   1.411       .  A
C361        C366   1.408       .  A
C362        C876   1.484       .  S
C362        C363   1.399       .  A
C363        C364   1.401       .  A
C363        H368   1.085       .  S
C364        C420   1.485       .  S
C364        C365   1.432       .  A
C365        C516   1.512       .  S
C365        C366   1.412       .  A
C366        H367   1.084       .  S
C369        C909   1.490       .  S
C369        C370   1.414       .  A
C369        C374   1.406       .  A
C370        C540   1.486       .  S
C370        C371   1.401       .  A
C371        C372   1.403       .  A
C371        H376   1.084       .  S
C372        C525   1.489       .  S
C372        C373   1.424       .  A
C373        C429   1.501       .  S
C373        C374   1.406       .  A
C374        H375   1.083       .  S
C377        C861   1.493       .  S
C377        C382   1.400       .  A
C377       C2314   1.410       .  A
C378        C588   1.476       .  S
C378        C379   1.403       .  A
C378       C2313   1.410   1_455  A
C379        C380   1.406       .  A
C379        H384   1.083       .  S
C380        C393   1.508       .  S
C380       C2317   1.430   1_455  A
C381        C441   1.489       .  S
C381        C382   1.407       .  A
C381       C2316   1.430       .  A
C382        H383   1.084       .  S
C385        C948   1.481       .  S
C385        C390   1.402       .  A
C385       C2322   1.411       .  A
C386        C552   1.484       .  S
C386        C387   1.400       .  A
C386       C2321   1.412   1_455  A
C387        C388   1.401       .  A
C387        H392   1.084       .  S
C388        C405   1.491       .  S
C388       C2325   1.427   1_455  A
C389        C456   1.497       .  S
C389        C390   1.405       .  A
C389       C2324   1.427       .  A
C390        H391   1.084       .  S
C393        C394   1.407       .  A
C393        C398   1.424       .  A
C394        C395   1.402       .  A
C394        H403   1.082       .  S
C395        C396   1.421       .  A
C395        S399   1.805       .  S
C396        C397   1.405       .  A
C397        C398   1.401       .  A
C397        H404   1.084       .  S
C398        S400   1.806       .  S
S399        H402   1.406       .  S
S400        H401   1.407       .  S
C405        C406   1.407       .  A
C405        C410   1.411       .  A
C406        C407   1.396       .  A
C406        H415   1.083       .  S
C407        C408   1.413       .  A
C407        S411   1.805       .  S
C408        C409   1.406       .  A
C409        C410   1.398       .  A
C409        H416   1.084       .  S
C410       S2348   1.802   1_455  S
S411        H414   1.406       .  S
S412       C2346   1.802       .  S
S412        H413   1.406       .  S
C417        C418   1.410       .  A
C417        C422   1.421       .  A
C418        C419   1.394       .  A
C418        H427   1.082       .  S
C419        C420   1.399       .  A
C419        S423   1.811       .  S
C420        C421   1.407       .  A
C421        C422   1.407       .  A
C421        H428   1.083       .  S
C422        S424   1.806       .  S
S423        H426   1.407       .  S
S424        H425   1.406       .  S
C429        C430   1.409       .  A
C429        C434   1.418       .  A
C430        C431   1.403       .  A
C430        H439   1.083       .  S
C431        C432   1.416       .  A
C431        S435   1.802       .  S
C432        C433   1.405       .  A
C433        C434   1.397       .  A
C433        H440   1.084       .  S
C434        S436   1.804       .  S
S435        H438   1.405       .  S
S436        H437   1.407       .  S
C441        C442   1.406       .  A
C441        C446   1.414       .  A
C442        C443   1.397       .  A
C442        H451   1.084       .  S
C443        C444   1.412       .  A
C443        S447   1.805       .  S
C444        C445   1.405       .  A
C445        C446   1.398       .  A
C445        H452   1.084       .  S
C446       S2384   1.804       .  S
S447        H450   1.405       .  S
S448       C2382   1.804   1_455  S
S448        H449   1.406       .  S
C453        C454   1.408       .  A
C453        C458   1.416       .  A
C454        C455   1.397       .  A
C454        H463   1.083       .  S
C455        C456   1.413       .  A
C455       S2395   1.804       .  S
C456        C457   1.408       .  A
C457        C458   1.400       .  A
C457        H464   1.083       .  S
C458        S460   1.805       .  S
S459       C2391   1.804   1_455  S
S459        H462   1.406       .  S
S460        H461   1.406       .  S
C465        C466   1.405       .  A
C465        C470   1.414       .  A
C466        C467   1.399       .  A
C466        H475   1.084       .  S
C467        C468   1.415       .  A
C467       S1439   1.804       .  S
C468        C469   1.406       .  A
C469        C470   1.400       .  A
C469        H476   1.084       .  S
C470        S472   1.804       .  S
S471       C1435   1.804   1_545  S
S471        H474   1.406       .  S
S472        H473   1.405       .  S
C477        C478   1.406       .  A
C477        C482   1.416       .  A
C478        C479   1.402       .  A
C478        H487   1.084       .  S
C479        C480   1.414       .  A
C479        S483   1.804       .  S
C480        C481   1.406       .  A
C481        C482   1.403       .  A
C481        H488   1.084       .  S
C482       S1452   1.801       .  S
S483        H486   1.406       .  S
S484       C1450   1.801   1_545  S
S484        H485   1.406       .  S
C489        C490   1.409       .  A
C489        C494   1.414       .  A
C490        C491   1.402       .  A
C490        H499   1.083       .  S
C491        C492   1.415       .  A
C491        S495   1.805       .  S
C492        C493   1.408       .  A
C493        C494   1.398       .  A
C493        H500   1.084       .  S
C494       S1464   1.804       .  S
S495        H498   1.406       .  S
S496       C1462   1.804       .  S
S496        H497   1.406       .  S
C501        C502   1.405       .  A
C501        C506   1.415       .  A
C502        C503   1.400       .  A
C502        H511   1.084       .  S
C503        C504   1.420       .  A
C503        S507   1.806       .  S
C504        C505   1.406       .  A
C505        C506   1.399       .  A
C505       H1480   1.083       .  S
C506       S1476   1.801       .  S
S507        H510   1.405       .  S
S508       C1474   1.801       .  S
S508       H1477   1.406       .  S
H509       S1476   1.406       .  S
H512       C1473   1.083       .  S
C513        C514   1.408       .  A
C513        C518   1.408       .  A
C514        C515   1.410       .  A
C514        H523   1.083       .  S
C515        C516   1.421       .  A
C515        S519   1.804       .  S
C516        C517   1.404       .  A
C517        C518   1.394       .  A
C517        H524   1.061       .  S
C518        S520   1.807       .  S
S519        H522   1.407       .  S
S520        H521   1.406       .  S
C525        C526   1.407       .  A
C525        C530   1.417       .  A
C526        C527   1.400       .  A
C526        H535   1.084       .  S
C527        C528   1.414       .  A
C527        S531   1.805       .  S
C528        C529   1.400       .  A
C529        C530   1.395       .  A
C529        H536   1.084       .  S
C530        S532   1.805       .  S
S531        H534   1.405       .  S
S532        H533   1.406       .  S
C537        C538   1.406       .  A
C537        C542   1.419       .  A
C538        C539   1.402       .  A
C538        H547   1.084       .  S
C539        C540   1.414       .  A
C539        S543   1.806       .  S
C540        C541   1.402       .  A
C541        C542   1.400       .  A
C541        H548   1.084       .  S
C542        S544   1.803       .  S
S543        H546   1.404       .  S
S544        H545   1.408       .  S
C549        C550   1.407       .  A
C549        C554   1.417       .  A
C550        C551   1.397       .  A
C550        H559   1.084       .  S
C551        C552   1.416       .  A
C551        S555   1.809       .  S
C552        C553   1.404       .  A
C553        C554   1.400       .  A
C553        H560   1.084       .  S
C554        S556   1.802       .  S
S555        H558   1.400       .  S
S556        H557   1.408       .  S
C561        C562   1.402       .  A
C561        C566   1.415       .  A
C562        C563   1.404       .  A
C562        H571   1.084       .  S
C563        C564   1.421       .  A
C563        S567   1.803       .  S
C564        C565   1.408       .  A
C565        C566   1.404       .  A
C565        H572   1.084       .  S
C566        S568   1.805       .  S
S567        H570   1.408       .  S
S568        H569   1.405       .  S
C573        C574   1.408       .  A
C573        C578   1.419       .  A
C574        C575   1.402       .  A
C574        H583   1.084       .  S
C575        C576   1.412       .  A
C575        S579   1.807       .  S
C576        C577   1.402       .  A
C577        C578   1.402       .  A
C577        H584   1.083       .  S
C578        S580   1.802       .  S
S579        H582   1.403       .  S
S580        H581   1.408       .  S
C585        C586   1.409       .  A
C585        C590   1.413       .  A
C586        C587   1.399       .  A
C586        H595   1.084       .  S
C587        C588   1.409       .  A
C587        S591   1.808       .  S
C588        C589   1.404       .  A
C589        C590   1.402       .  A
C589        H596   1.082       .  S
C590        S592   1.808       .  S
S591       H2530   1.402       .  S
S592        H593   1.407       .  S
H594       S2527   1.402       .  S
C597        C598   1.405       .  A
C597        C602   1.414       .  A
C598        C599   1.407       .  A
C598        H607   1.084       .  S
C599        C600   1.418       .  A
C599        S603   1.802       .  S
C600        C601   1.407       .  A
C601        C602   1.404       .  A
C601        H608   1.084       .  S
C602        S604   1.801       .  S
S603        H606   1.407       .  S
S604        H605   1.406       .  S
C609        C610   1.410       .  A
C609        C614   1.423       .  A
C610        C611   1.403       .  A
C610        H619   1.083       .  S
C611        C612   1.415       .  A
C611        S615   1.806       .  S
C612        C613   1.403       .  A
C613        C614   1.404       .  A
C613        H620   1.082       .  S
C614        S616   1.801       .  S
S615        H618   1.404       .  S
S616        H617   1.408       .  S
C621        C622   1.402       .  A
C621        C626   1.413       .  A
C622        C623   1.403       .  A
C622        H631   1.084       .  S
C623        C624   1.418       .  A
C623        S627   1.803       .  S
C624        C625   1.404       .  A
C625        C626   1.398       .  A
C625        H632   1.084       .  S
C626        S628   1.808       .  S
S627        H630   1.407       .  S
S628        H629   1.401       .  S
C633        C634   1.403       .  A
C633        C638   1.413       .  A
C634        C635   1.399       .  A
C634        H643   1.083       .  S
C635        C636   1.416       .  A
C635        S639   1.803       .  S
C636        C637   1.407       .  A
C637        C638   1.402       .  A
C637        H644   1.084       .  S
C638        S640   1.806       .  S
S639        H642   1.408       .  S
S640        H641   1.403       .  S
C645        C646   1.402       .  A
C645        C650   1.412       .  A
C646        C647   1.402       .  A
C646        H655   1.084       .  S
C647        C648   1.419       .  A
C647        S651   1.802       .  S
C648        C649   1.406       .  A
C649        C650   1.397       .  A
C649        H656   1.084       .  S
C650        S652   1.805       .  S
S651        H654   1.407       .  S
S652        H653   1.405       .  S
C657        C658   1.406       .  A
C657        C662   1.419       .  A
C658        C659   1.404       .  A
C658        H667   1.084       .  S
C659        C660   1.414       .  A
C659        S663   1.804       .  S
C660        C661   1.402       .  A
C661        C662   1.402       .  A
C661        H668   1.084       .  S
C662        S664   1.804       .  S
S663       H1634   1.406       .  S
S664        H665   1.407       .  S
H666       S1631   1.406       .  S
C669        C670   1.407       .  A
C669        C674   1.418       .  A
C670        C671   1.406       .  A
C670        H679   1.084       .  S
C671        C672   1.414       .  A
C671        S675   1.800       .  S
C672        C673   1.403       .  A
C673        C674   1.404       .  A
C673        H680   1.084       .  S
C674        S676   1.803       .  S
S675        H678   1.406       .  S
S676        H677   1.407       .  S
C681        C682   1.407       .  A
C681        C686   1.417       .  A
C682        C683   1.407       .  A
C682        H691   1.083       .  S
C683        C684   1.416       .  A
C683        S687   1.806       .  S
C684        C685   1.401       .  A
C685        C686   1.397       .  A
C685        H692   1.082       .  S
C686        S688   1.806       .  S
S687        H690   1.401       .  S
S688        H689   1.406       .  S
C693        C694   1.401       .  A
C693        C698   1.413       .  A
C694        C695   1.399       .  A
C694        H703   1.084       .  S
C695        C696   1.421       .  A
C695        S699   1.806       .  S
C696        C697   1.403       .  A
C697        C698   1.394       .  A
C697        H704   1.084       .  S
C698        S700   1.805       .  S
S699        H702   1.404       .  S
S700        H701   1.406       .  S
C705        C706   1.408       .  A
C705        C710   1.416       .  A
C706        C707   1.400       .  A
C706        H715   1.083       .  S
C707        C708   1.417       .  A
C707        S711   1.806       .  S
C708        C709   1.407       .  A
C709        C710   1.400       .  A
C709        H716   1.083       .  S
C710       S1680   1.803       .  S
S711        H714   1.406       .  S
S712       C1678   1.803   1_545  S
S712        H713   1.406       .  S
C717        C718   1.407       .  A
C717        C722   1.410       .  A
C718        C719   1.403       .  A
C718        H727   1.083       .  S
C719        C720   1.414       .  A
C719        S723   1.804       .  S
C720        C721   1.405       .  A
C721        C722   1.394       .  A
C721        H728   1.084       .  S
C722        S724   1.804       .  S
S723        H726   1.406       .  S
S724        H725   1.406       .  S
C729        C730   1.405       .  A
C729        C734   1.414       .  A
C730        C731   1.402       .  A
C730        H739   1.084       .  S
C731        C732   1.421       .  A
C731        S735   1.805       .  S
C732        C733   1.409       .  A
C733        C734   1.402       .  A
C733       H2676   1.080   1_455  S
C734        S736   1.801       .  S
S735        H738   1.406       .  S
S736        H737   1.407       .  S
H740       C2669   1.080       .  S
C741        C742   1.407       .  A
C741        C746   1.417       .  A
C742        C743   1.400       .  A
C742        H751   1.083       .  S
C743        C744   1.416       .  A
C743       S1715   1.801   1_545  S
C744        C745   1.407       .  A
C745        C746   1.398       .  A
C745        H752   1.083       .  S
C746        S748   1.806       .  S
S747       C1711   1.801       .  S
S747        H750   1.406       .  S
S748        H749   1.407       .  S
C753        C754   1.406       .  A
C753        C758   1.411       .  A
C754        C755   1.399       .  A
C754        H763   1.084       .  S
C755        C756   1.412       .  A
C755        S759   1.803   1_545  S
C756        C757   1.408       .  A
C757        C758   1.398       .  A
C757        H764   1.084       .  S
C758        S760   1.805       .  S
S759       H1730   1.406       .  S
S760        H761   1.405       .  S
H762       S1727   1.406       .  S
C765        C766   1.406       .  A
C765        C770   1.413       .  A
C766        C767   1.408       .  A
C766        H775   1.083       .  S
C767        C768   1.420       .  A
C767        S771   1.803       .  S
C768        C769   1.401       .  A
C769        C770   1.392       .  A
C769       H2712   1.070       .  S
C770        S772   1.807       .  S
S771        H774   1.407       .  S
S772        H773   1.406       .  S
H776       C2705   1.071       .  S
C777        C778   1.407       .  A
C777        C782   1.410       .  A
C778        C779   1.402       .  A
C778        H787   1.084       .  S
C779        C780   1.413       .  A
C779        S783   1.803       .  S
C780        C781   1.406       .  A
C781        C782   1.398       .  A
C781        H788   1.084       .  S
C782        S784   1.804       .  S
S783        H786   1.406       .  S
S784        H785   1.406       .  S
C789        C790   1.405       .  A
C789        C794   1.415       .  A
C790        C791   1.404       .  A
C790        H799   1.084       .  S
C791        C792   1.417       .  A
C791        S795   1.803       .  S
C792        C793   1.399       .  A
C793        C794   1.397       .  A
C793        H800   1.077       .  S
C794        S796   1.811       .  S
S795        H798   1.403       .  S
S796        H797   1.406       .  S
C801        C802   1.408       .  A
C801        C806   1.420       .  A
C802        C803   1.396       .  A
C802        H811   1.084       .  S
C803        C804   1.413       .  A
C803        S807   1.812       .  S
C804        C805   1.404       .  A
C805        C806   1.406       .  A
C805        H812   1.084       .  S
C806        S808   1.805       .  S
S807        H810   1.402       .  S
S808        H809   1.406       .  S
C813        C814   1.409       .  A
C813        C818   1.428       .  A
C814        C815   1.398       .  A
C814        H823   1.078       .  S
C815        C816   1.413       .  A
C815        S819   1.805       .  S
C816        C817   1.401       .  A
C817        C818   1.402       .  A
C817        H824   1.081       .  S
C818        S820   1.806       .  S
S819        H822   1.406       .  S
S820        H821   1.408       .  S
C825        C826   1.402       .  A
C825        C830   1.414       .  A
C826        C827   1.402       .  A
C826        H835   1.084       .  S
C827        C828   1.419       .  A
C827        S831   1.808       .  S
C828        C829   1.404       .  A
C829        C830   1.404       .  A
C829        H836   1.084       .  S
C830        S832   1.803       .  S
S831        H834   1.400       .  S
S832        H833   1.406       .  S
C837        C838   1.403       .  A
C837        C842   1.412       .  A
C838        C839   1.401       .  A
C838        H847   1.084       .  S
C839        C840   1.418       .  A
C839       S1811   1.808       .  S
C840        C841   1.404       .  A
C841        C842   1.400       .  A
C841        H848   1.084       .  S
C842        S844   1.803       .  S
S843       C1807   1.808       .  S
S843        H846   1.400       .  S
S844        H845   1.407       .  S
C849        C850   1.405       .  A
C849        C854   1.414       .  A
C850        C851   1.403       .  A
C850        H859   1.084       .  S
C851        C852   1.414       .  A
C851        S855   1.805       .  S
C852        C853   1.404       .  A
C853        C854   1.400       .  A
C853        H860   1.084       .  S
C854        S856   1.799       .  S
S855        H858   1.405       .  S
S856        H857   1.407       .  S
C861        C862   1.403       .  A
C861        C866   1.414       .  A
C862        C863   1.403       .  A
C862        H871   1.082       .  S
C863        C864   1.420       .  A
C863        S867   1.800       .  S
C864        C865   1.410       .  A
C865        C866   1.405       .  A
C865        H872   1.083       .  S
C866        S868   1.806       .  S
S867        H870   1.408       .  S
S868        H869   1.404       .  S
C873        C874   1.403       .  A
C873        C878   1.415       .  A
C874        C875   1.401       .  A
C874        H883   1.084       .  S
C875        C876   1.414       .  A
C875        S879   1.805       .  S
C876        C877   1.402       .  A
C877        C878   1.401       .  A
C877        H884   1.083       .  S
C878        S880   1.803       .  S
S879        H882   1.405       .  S
S880        H881   1.407       .  S
C885        C886   1.405       .  A
C885        C890   1.416       .  A
C886        C887   1.399       .  A
C886        H895   1.082       .  S
C887        C888   1.412       .  A
C887        S891   1.804       .  S
C888        C889   1.404       .  A
C889        C890   1.402       .  A
C889        H896   1.084       .  S
C890        S892   1.805       .  S
S891        H894   1.407       .  S
S892        H893   1.405       .  S
C897        C898   1.398       .  A
C897        C902   1.409       .  A
C898        C899   1.399       .  A
C898        H907   1.083       .  S
C899        C900   1.419       .  A
C899        S903   1.803       .  S
C900        C901   1.406       .  A
C901        C902   1.403       .  A
C901        H908   1.083       .  S
C902       S1872   1.807       .  S
S903        H906   1.408       .  S
S904       C1870   1.807       .  S
S904        H905   1.407       .  S
C909        C910   1.403       .  A
C909        C914   1.413       .  A
C910        C911   1.400       .  A
C910        H919   1.082       .  S
C911        C912   1.418       .  A
C911        S915   1.800       .  S
C912        C913   1.409       .  A
C913        C914   1.401       .  A
C913        H920   1.084       .  S
C914        S916   1.805       .  S
S915        H918   1.408       .  S
S916        H917   1.406       .  S
C921        C922   1.402       .  A
C921        C926   1.414       .  A
C922        C923   1.404       .  A
C922        H931   1.083       .  S
C923        C924   1.416       .  A
C923        S927   1.808       .  S
C924        C925   1.407       .  A
C925        C926   1.404       .  A
C925        H932   1.084       .  S
C926        S928   1.805       .  S
S927        H930   1.406       .  S
S928       H2865   1.404       .  S
H929       S2864   1.404       .  S
C933        C934   1.409       .  A
C933        C938   1.422       .  A
C934        C935   1.402       .  A
C934        H943   1.083       .  S
C935        C936   1.414       .  A
C935        S939   1.805       .  S
C936        C937   1.404       .  A
C937        C938   1.406       .  A
C937        H944   1.083       .  S
C938        S940   1.800       .  S
S939        H942   1.406       .  S
S940        H941   1.408       .  S
C945        C946   1.404       .  A
C945        C950   1.417       .  A
C946        C947   1.398       .  A
C946        H955   1.084       .  S
C947        C948   1.413       .  A
C947        S951   1.801       .  S
C948        C949   1.401       .  A
C949        C950   1.399       .  A
C949        H956   1.084       .  S
C950        S952   1.803       .  S
S951        H954   1.406       .  S
S952        H953   1.407       .  S
C957        C958   1.401       .  A
C957        C962   1.414       .  A
C958        C959   1.403       .  A
C958        H967   1.083       .  S
C959        C960   1.423       .  A
C959        S963   1.802       .  S
C960        C961   1.409       .  A
C961        C962   1.404       .  A
C961        H968   1.083       .  S
C962        S964   1.805       .  S
S963        H966   1.408       .  S
S964        H965   1.406       .  S
Zn969       O973   1.954   1_554  S
Zn969       O974   2.039       .  S
Zn969       O978   2.020       .  S
Zn969       O985   2.011       .  S
Zn970       O973   1.957       .  S
Zn970       O975   2.006       .  S
Zn970       O977   2.036   1_556  S
Zn970       O981   2.028       .  S
Zn971       O973   1.961       .  S
Zn971       O976   2.029   1_556  S
Zn971       O979   2.032       .  S
Zn971       O982   2.024       .  S
Zn972       O973   1.973       .  S
Zn972       O980   2.054       .  S
Zn972       O983   2.039       .  S
Zn972       O984   2.026   1_556  S
O974        C986   1.276       .  A
O975        C987   1.273       .  A
O976        C988   1.274       .  A
O977        C986   1.273       .  A
O978        C988   1.274       .  A
O979        C987   1.277       .  A
O980        C989   1.279       .  A
O981        C990   1.276       .  A
O982        C989   1.273       .  A
O983        C990   1.276       .  A
O984        C991   1.276       .  A
O985        C991   1.274       .  A
C986       C1901   1.503       .  S
C987       C1868   1.485       .  S
C988       C1880   1.493       .  S
C989       C1928   1.500       .  S
C990       C1892   1.490       .  S
C991       C1913   1.483       .  S
Zn992       O996   1.962       .  S
Zn992       O997   2.033       .  S
Zn992      O1001   2.040       .  S
Zn992      O1008   2.049       .  S
Zn993       O996   1.967       .  S
Zn993       O998   2.036       .  S
Zn993      O1000   2.018       .  S
Zn993      O1004   2.036       .  S
Zn994       O996   1.959       .  S
Zn994       O999   2.029       .  S
Zn994      O1002   2.038       .  S
Zn994      O1005   2.029       .  S
Zn995       O996   1.960       .  S
Zn995      O1003   2.017       .  S
Zn995      O1006   2.018       .  S
Zn995      O1007   2.013       .  S
O997       C1009   1.277       .  A
O998       C1010   1.276       .  A
O999       C1011   1.274       .  A
O1000      C1009   1.274       .  A
O1001      C1011   1.276       .  A
O1002      C1010   1.275       .  A
O1003      C1012   1.274       .  A
O1004      C1013   1.275       .  A
O1005      C1012   1.276       .  A
O1006      C1013   1.274       .  A
O1007      C1014   1.271       .  A
O1008      C1014   1.277       .  A
C1009      C1856   1.478       .  S
C1010      C1832   1.500       .  S
C1011      C1793   1.482       .  S
C1012      C1805   1.479       .  S
C1013      C1841   1.480       .  S
C1014      C1817   1.485       .  S
N1015      C1020   1.350       .  A
N1015      H1047   1.039       .  S
N1016      C1023   1.351       .  A
N1016      C1024   1.353       .  A
N1017      C1022   1.356       .  A
N1017      H1048   1.039       .  S
N1018      C1025   1.356       .  A
N1018      C1026   1.353       .  A
C1019      C1027   1.386       .  A
C1019      C1035   1.410       .  A
C1020      C1036   1.410       .  A
C1020      C1028   1.387       .  A
C1021      C1029   1.384       .  A
C1021      C1038   1.422       .  A
C1022      C1037   1.424       .  A
C1022      C1030   1.390       .  A
C1023      C1035   1.414       .  A
C1023      C1031   1.381       .  A
C1024      C1038   1.416       .  A
C1024      C1032   1.386       .  A
C1025      C1033   1.385       .  A
C1025      C1036   1.416       .  A
C1026      C1034   1.389       .  A
C1026      C1037   1.422       .  A
C1027      H1039   1.082       .  S
C1028      H1040   1.082       .  S
C1029      H1041   1.082       .  S
C1030      H1042   1.076       .  S
C1031      C1032   1.373       .  A
C1031      H1043   1.079       .  S
C1032      H1044   1.082       .  S
C1033      C1034   1.368       .  A
C1033      H1045   1.080       .  S
C1034      H1046   1.081       .  S
C1035      C1745   1.490       .  S
C1036      C1757   1.495       .  S
C1037      C1784   1.502       .  S
C1038      C1769   1.508       .  S
N1049      C1054   1.352       .  A
N1049      C1053   1.354       .  A
N1049      H1081   1.043       .  S
N1050      C1057   1.351       .  A
N1050      C1058   1.350       .  A
N1051      C1056   1.355       .  A
N1051      C1055   1.356       .  A
N1051      H1082   1.037       .  S
N1052      C1059   1.352       .  A
N1052      C1060   1.350       .  A
C1053      C1061   1.388       .  A
C1053      C1069   1.417       .  A
C1054      C1070   1.414       .  A
C1054      C1062   1.386       .  A
C1055      C1063   1.389       .  A
C1055      C1072   1.424       .  A
C1056      C1071   1.419       .  A
C1056      C1064   1.387       .  A
C1057      C1069   1.418       .  A
C1057      C1065   1.386       .  A
C1058      C1072   1.414       .  A
C1058      C1066   1.386       .  A
C1059      C1067   1.386       .  A
C1059      C1070   1.416       .  A
C1060      C1068   1.386       .  A
C1060      C1071   1.414       .  A
C1061      C1062   1.376       .  A
C1061      H1073   1.082       .  S
C1062      H1074   1.082       .  S
C1063      C1064   1.371       .  A
C1063      H1075   1.082       .  S
C1064      H1076   1.082       .  S
C1065      C1066   1.377       .  A
C1065      H1077   1.082       .  S
C1066      H1078   1.080       .  S
C1067      C1068   1.373       .  A
C1067      H1079   1.081       .  S
C1068      H1080   1.081       .  S
C1069      C1697   1.505       .  S
C1070      C1709   1.501       .  S
C1071      C1721   1.489       .  S
C1072      C1733   1.497       .  S
N1083      C3024   1.353       .  A
N1083      C1087   1.355       .  A
N1083      H1115   1.038       .  S
N1084      C1091   1.355       .  A
N1084      C1092   1.351       .  A
N1085      C3026   1.358       .  A
N1085      C1089   1.355       .  A
N1085      H1116   1.040       .  S
N1086      C1093   1.349       .  A
N1086      C1094   1.352       .  A
C1087      C1095   1.389       .  A
C1087      C1103   1.421       .  A
C1088      N3019   1.353   1_455  A
C1088      C1104   1.411       .  A
C1088      C1096   1.384       .  A
C1089      C1097   1.387       .  A
C1089      C1106   1.417       .  A
C1090      N3021   1.358       .  A
C1090      C1105   1.421       .  A
C1090      C1098   1.385       .  A
C1091      C1103   1.422       .  A
C1091      C1099   1.386       .  A
C1092      C1106   1.421       .  A
C1092      C1100   1.386       .  A
C1093      C1101   1.386       .  A
C1093      C1104   1.414       .  A
C1094      C1102   1.386       .  A
C1094      C1105   1.416       .  A
C1095      C3032   1.371       .  A
C1095      H1107   1.082       .  S
C1096      C3031   1.371   1_455  A
C1096      H1108   1.082       .  S
C1097      C3034   1.367       .  A
C1097      H1109   1.080       .  S
C1098      C3033   1.367   1_455  A
C1098      H1110   1.079       .  S
C1099      C1100   1.375       .  A
C1099      H1111   1.081       .  S
C1100      H1112   1.082       .  S
C1101      C1102   1.369       .  A
C1101      H1113   1.080       .  S
C1102      H1114   1.081       .  S
C1103      C1649   1.503       .  S
C1104      C1661   1.485       .  S
C1105      C1676   1.505       .  S
C1106      C1685   1.491       .  S
C1117      C1796   1.487       .  S
C1117      C3054   1.418       .  A
C1117      C1122   1.405       .  A
C1118      C1640   1.491       .  S
C1118      C3053   1.418   1_455  A
C1118      C1119   1.408       .  A
C1119      C1120   1.410       .  A
C1119      H1124   1.084       .  S
C1120      C1736   1.502       .  S
C1120      C3057   1.422   1_455  A
C1121      C1772   1.486       .  S
C1121      C3056   1.422       .  A
C1121      C1122   1.402       .  A
C1122      H1123   1.085       .  S
C1125      C1820   1.483       .  S
C1125      C1130   1.398       .  A
C1126      C1628   1.487       .  S
C1126      C1127   1.407       .  A
C1127      C1128   1.411       .  A
C1127      H1132   1.084       .  S
C1128      C1673   1.501       .  S
C1129      C1724   1.490       .  S
C1129      C1130   1.401       .  A
C1130      H1131   1.085       .  S
C1133      C1613   1.482       .  S
C1133      C1134   1.415       .  A
C1133      C1138   1.403       .  A
C1134      C1925   1.491       .  S
C1134      C1135   1.409       .  A
C1135      C1136   1.407       .  A
C1135      H1140   1.084       .  S
C1136      C1652   1.490       .  S
C1136      C1137   1.420       .  A
C1137      C1760   1.489       .  S
C1137      C1138   1.399       .  A
C1138      H1139   1.085       .  S
C1141      C1853   1.488       .  S
C1141      C1142   1.409       .  A
C1141      C1146   1.400       .  A
C1142      C1601   1.484       .  S
C1142      C1143   1.402       .  A
C1143      C1144   1.408       .  A
C1143      H1148   1.082       .  S
C1144      C1781   1.515       .  S
C1144      C1145   1.432       .  A
C1145      C1688   1.486       .  S
C1145      C1146   1.407       .  A
C1146      H1147   1.085       .  S
C1149      C1589   1.478       .  S
C1149      C1154   1.399       .  A
C1150      C1865   1.476       .  S
C1150      C1151   1.400       .  A
C1151      C1152   1.406       .  A
C1151      H1156   1.084       .  S
C1152      C1712   1.501       .  S
C1153      C1664   1.487       .  S
C1153      C1154   1.404       .  A
C1154      H1155   1.084       .  S
C1157      C1889   1.485       .  S
C1157      C3094   1.416       .  A
C1157      C1162   1.401       .  A
C1158      C1580   1.496       .  S
C1158      C3093   1.416   1_455  A
C1158      C1159   1.410       .  A
C1159      C1160   1.413       .  A
C1159      H1164   1.083       .  S
C1160      C1700   1.507       .  S
C1160      C3097   1.424   1_455  A
C1161      C1748   1.486       .  S
C1161      C3096   1.424       .  A
C1161      C1162   1.403       .  A
C1162      H1163   1.085       .  S
Zn1165     O1169   1.958       .  S
Zn1165     O1170   2.020       .  S
Zn1165     O1174   2.020       .  S
Zn1165     O1181   2.037       .  S
Zn1166     O1169   1.975       .  S
Zn1166     O1171   2.041       .  S
Zn1166     O1173   2.051       .  S
Zn1166     O1177   2.043       .  S
Zn1167     O1169   1.970       .  S
Zn1167     O1172   2.026       .  S
Zn1167     O1175   2.054       .  S
Zn1167     O1178   2.037       .  S
Zn1168     O1169   1.964       .  S
Zn1168     O1176   2.027       .  S
Zn1168     O1179   1.997       .  S
Zn1168     O1180   2.043       .  S
O1170      C1182   1.274       .  A
O1171      C1183   1.276       .  A
O1172      C1184   1.275       .  A
O1173      C1182   1.278       .  A
O1174      C1184   1.275       .  A
O1175      C1183   1.278       .  A
O1176      C1185   1.276       .  A
O1177      C1186   1.278       .  A
O1178      C1185   1.276       .  A
O1179      C1186   1.272       .  A
O1180      C1187   1.275       .  A
O1181      C1187   1.275       .  A
C1182      C1625   1.491       .  S
C1183      C1568   1.498       .  S
C1184      C1604   1.486       .  S
C1185      C1541   1.493       .  S
C1186      C1553   1.484       .  S
C1187      C1637   1.495       .  S
Zn1188     O1192   1.956   1_556  S
Zn1188     O1193   2.022       .  S
Zn1188     O1197   2.027       .  S
Zn1188     O1204   2.041       .  S
Zn1189     O1192   1.964       .  S
Zn1189     O1194   2.047       .  S
Zn1189     O1196   2.016   1_554  S
Zn1189     O1200   2.006       .  S
Zn1190     O1192   1.961       .  S
Zn1190     O1195   2.020   1_554  S
Zn1190     O1198   2.025       .  S
Zn1190     O1201   2.007       .  S
Zn1191     O1192   1.970       .  S
Zn1191     O1199   2.025       .  S
Zn1191     O1202   2.040       .  S
Zn1191     O1203   2.035   1_554  S
O1193      C1205   1.276       .  A
O1194      C1206   1.277       .  A
O1195      C1207   1.273       .  A
O1196      C1205   1.273       .  A
O1197      C1207   1.276       .  A
O1198      C1206   1.273       .  A
O1199      C1208   1.274       .  A
O1200      C1209   1.272       .  A
O1201      C1208   1.275       .  A
O1202      C1209   1.277       .  A
O1203      C1210   1.273       .  A
O1204      C1210   1.277       .  A
C1205      C1616   1.487       .  S
C1206      C1532   1.498       .  S
C1207      C1592   1.485       .  S
C1208      C1517   1.488       .  S
C1209      C1505   1.489       .  S
C1210      C1577   1.506       .  S
N1211      C1216   1.357       .  A
N1211      C3151   1.358   1_455  A
N1211      H1243   1.041       .  S
N1212      C1219   1.346       .  A
N1212      C1220   1.349       .  A
N1213      C1218   1.350   1_655  A
N1213      C3153   1.353       .  A
N1213      H1244   1.041   1_655  S
N1214      C1221   1.353       .  A
N1214      C1222   1.352       .  A
C1215      N3147   1.358       .  A
C1215      C1223   1.385       .  A
C1215      C1231   1.423       .  A
C1216      C1232   1.426       .  A
C1216      C1224   1.389       .  A
C1217      N3149   1.353       .  A
C1217      C1225   1.386       .  A
C1217      C1234   1.416       .  A
C1218      C1233   1.410       .  A
C1218      C1226   1.387       .  A
C1219      C1231   1.411       .  A
C1219      C1227   1.387       .  A
C1220      C1234   1.409       .  A
C1220      C1228   1.384       .  A
C1221      C1229   1.387       .  A
C1221      C1232   1.416       .  A
C1222      C1230   1.385       .  A
C1222      C1233   1.416       .  A
C1223      C3160   1.374       .  A
C1223      H1235   1.081       .  S
C1224      C3159   1.374   1_455  A
C1224      H1236   1.080       .  S
C1225      C3162   1.372       .  A
C1225      H1237   1.079       .  S
C1226      C3161   1.372   1_455  A
C1226      H1238   1.080       .  S
C1227      C1228   1.377       .  A
C1227      H1239   1.082       .  S
C1228      H1240   1.082       .  S
C1229      C1230   1.373       .  A
C1229      H1241   1.081       .  S
C1230      H1242   1.081       .  S
C1231      C1460   1.501       .  S
C1232      C1481   1.501       .  S
C1233      C1496   1.486       .  S
C1234      C1469   1.496       .  S
N1245      C1250   1.354       .  A
N1245      C1249   1.355       .  A
N1245      H1277   1.035       .  S
N1246      C1253   1.351       .  A
N1246      C1254   1.351       .  A
N1247      C1252   1.357       .  A
N1247      C1251   1.356       .  A
N1247      H1278   1.040       .  S
N1248      C1255   1.355       .  A
N1248      C1256   1.354       .  A
C1249      C1257   1.387       .  A
C1249      C1265   1.419       .  A
C1250      C1266   1.420       .  A
C1250      C1258   1.388       .  A
C1251      C1259   1.385       .  A
C1251      C1268   1.422       .  A
C1252      C1267   1.420       .  A
C1252      C1260   1.387       .  A
C1253      C1265   1.416       .  A
C1253      C1261   1.387       .  A
C1254      C1268   1.415       .  A
C1254      C1262   1.386       .  A
C1255      C1263   1.386       .  A
C1255      C1266   1.420       .  A
C1256      C1264   1.385       .  A
C1256      C1267   1.420       .  A
C1257      C1258   1.368       .  A
C1257      H1269   1.081       .  S
C1258      H1270   1.081       .  S
C1259      C1260   1.371       .  A
C1259      H1271   1.078       .  S
C1260      H1272   1.080       .  S
C1261      C1262   1.369       .  A
C1261      H1273   1.080       .  S
C1262      H1274   1.082       .  S
C1263      C1264   1.373       .  A
C1263      H1275   1.082       .  S
C1264      H1276   1.081       .  S
C1265      C1412   1.491       .  S
C1266      C1433   1.494       .  S
C1267      C1448   1.500       .  S
C1268      C1421   1.502       .  S
C1279      C1808   1.483       .  S
C1279      C1284   1.406       .  A
C1280      C1565   1.495       .  S
C1280      C1281   1.405       .  A
C1281      C1282   1.409       .  A
C1281      H1286   1.084       .  S
C1282      C1436   1.493       .  S
C1283      C1457   1.499       .  S
C1283      C1284   1.404       .  A
C1284      H1285   1.084       .  S
N1287      C1291   1.360       .  A
N1287      H1319   1.037       .  S
N1288      C1295   1.353       .  A
N1288      C1296   1.356       .  A
N1289      C1293   1.352       .  A
N1289      H1320   1.039       .  S
N1290      C1297   1.351       .  A
N1290      C1298   1.351       .  A
C1291      C1299   1.390       .  A
C1291      C1307   1.434       .  A
C1292      C1308   1.429       .  A
C1292      C1300   1.386       .  A
C1293      C1301   1.386       .  A
C1293      C1310   1.415       .  A
C1294      C1309   1.417       .  A
C1294      C1302   1.389       .  A
C1295      C1307   1.427       .  A
C1295      C1303   1.391       .  A
C1296      C1310   1.416       .  A
C1296      C1304   1.379       .  A
C1297      C1305   1.384       .  A
C1297      C1308   1.413       .  A
C1298      C1306   1.388       .  A
C1298      C1309   1.417       .  A
C1299      H1311   1.080       .  S
C1300      H1312   1.080       .  S
C1301      H1313   1.082       .  S
C1302      H1314   1.080       .  S
C1303      C1304   1.368       .  A
C1303      H1315   1.076       .  S
C1304      H1316   1.082       .  S
C1305      C1306   1.372       .  A
C1305      H1317   1.082       .  S
C1306      H1318   1.080       .  S
C1307      C1385   1.508       .  S
C1308      C1364   1.511       .  S
C1309      C1376   1.491       .  S
C1310      C1400   1.502       .  S
C1321      C1904   1.496       .  S
C1321      C1326   1.407       .  A
C1322      C1529   1.491       .  S
C1322      C1323   1.408       .  A
C1323      C1324   1.407       .  A
C1323      H1328   1.084       .  S
C1324      C1445   1.500       .  S
C1325      C1472   1.496       .  S
C1325      C1326   1.405       .  A
C1326      H1327   1.083       .  S
C1329      C1544   1.484       .  S
C1329      C1330   1.411       .  A
C1329      C1334   1.408       .  A
C1330      C1844   1.484       .  S
C1330      C1331   1.399       .  A
C1331      C1332   1.401       .  A
C1331      H1336   1.085       .  S
C1332      C1388   1.485       .  S
C1332      C1333   1.432       .  A
C1333      C1484   1.512       .  S
C1333      C1334   1.412       .  A
C1334      H1335   1.084       .  S
C1337      C1877   1.490       .  S
C1337      C1338   1.414       .  A
C1337      C1342   1.406       .  A
C1338      C1508   1.486       .  S
C1338      C1339   1.401       .  A
C1339      C1340   1.403       .  A
C1339      H1344   1.084       .  S
C1340      C1493   1.489       .  S
C1340      C1341   1.424       .  A
C1341      C1397   1.501       .  S
C1341      C1342   1.406       .  A
C1342      H1343   1.083       .  S
C1345      C1829   1.493       .  S
C1345      C3282   1.410       .  A
C1345      C1350   1.400       .  A
C1346      C1556   1.476       .  S
C1346      C3281   1.410   1_455  A
C1346      C1347   1.403       .  A
C1347      C1348   1.406       .  A
C1347      H1352   1.083       .  S
C1348      C1361   1.508       .  S
C1348      C3285   1.430   1_455  A
C1349      C1409   1.489       .  S
C1349      C3284   1.430       .  A
C1349      C1350   1.407       .  A
C1350      H1351   1.084       .  S
C1353      C1916   1.481       .  S
C1353      C3290   1.411       .  A
C1353      C1358   1.402       .  A
C1354      C1520   1.484       .  S
C1354      C3289   1.412   1_455  A
C1354      C1355   1.400       .  A
C1355      C1356   1.401       .  A
C1355      H1360   1.084       .  S
C1356      C1373   1.491       .  S
C1356      C3293   1.427   1_455  A
C1357      C1424   1.497       .  S
C1357      C3292   1.427       .  A
C1357      C1358   1.405       .  A
C1358      H1359   1.084       .  S
C1361      C1362   1.407       .  A
C1361      C1366   1.424       .  A
C1362      C1363   1.402       .  A
C1362      H1371   1.082       .  S
C1363      C1364   1.421       .  A
C1363      S1367   1.805       .  S
C1364      C1365   1.405       .  A
C1365      C1366   1.401       .  A
C1365      H1372   1.084       .  S
C1366      S1368   1.806       .  S
S1367      H1370   1.406       .  S
S1368      H1369   1.407       .  S
C1373      C1374   1.407       .  A
C1373      C1378   1.411       .  A
C1374      C1375   1.396       .  A
C1374      H1383   1.083       .  S
C1375      C1376   1.413       .  A
C1375      S1379   1.805       .  S
C1376      C1377   1.406       .  A
C1377      C1378   1.398       .  A
C1377      H1384   1.084       .  S
C1378      S3316   1.802   1_455  S
S1379      H1382   1.406       .  S
S1380      C3314   1.802       .  S
S1380      H1381   1.406       .  S
C1385      C1386   1.410       .  A
C1385      C1390   1.421       .  A
C1386      C1387   1.394       .  A
C1386      H1395   1.082       .  S
C1387      C1388   1.399       .  A
C1387      S1391   1.811       .  S
C1388      C1389   1.407       .  A
C1389      C1390   1.407       .  A
C1389      H1396   1.083       .  S
C1390      S1392   1.806       .  S
S1391      H1394   1.407       .  S
S1392      H1393   1.406       .  S
C1397      C1398   1.409       .  A
C1397      C1402   1.418       .  A
C1398      C1399   1.403       .  A
C1398      H1407   1.083       .  S
C1399      C1400   1.416       .  A
C1399      S1403   1.802       .  S
C1400      C1401   1.405       .  A
C1401      C1402   1.397       .  A
C1401      H1408   1.084       .  S
C1402      S1404   1.804       .  S
S1403      H1406   1.405       .  S
S1404      H1405   1.407       .  S
C1409      C1410   1.406       .  A
C1409      C1414   1.414       .  A
C1410      C1411   1.397       .  A
C1410      H1419   1.084       .  S
C1411      C1412   1.412       .  A
C1411      S1415   1.805       .  S
C1412      C1413   1.405       .  A
C1413      C1414   1.398       .  A
C1413      H1420   1.084       .  S
C1414      S3352   1.804       .  S
S1415      H1418   1.405       .  S
S1416      C3350   1.804   1_455  S
S1416      H1417   1.406       .  S
C1421      C1422   1.408       .  A
C1421      C1426   1.416       .  A
C1422      C1423   1.397       .  A
C1422      H1431   1.083       .  S
C1423      C1424   1.413       .  A
C1423      S3363   1.804       .  S
C1424      C1425   1.408       .  A
C1425      C1426   1.400       .  A
C1425      H1432   1.083       .  S
C1426      S1428   1.805       .  S
S1427      C3359   1.804   1_455  S
S1427      H1430   1.406       .  S
S1428      H1429   1.406       .  S
C1433      C1434   1.405       .  A
C1433      C1438   1.414       .  A
C1434      C1435   1.399       .  A
C1434      H1443   1.084       .  S
C1435      C1436   1.415       .  A
C1436      C1437   1.406       .  A
C1437      C1438   1.400       .  A
C1437      H1444   1.084       .  S
C1438      S1440   1.804       .  S
S1439      H1442   1.406       .  S
S1440      H1441   1.405       .  S
C1445      C1446   1.406       .  A
C1445      C1450   1.416       .  A
C1446      C1447   1.402       .  A
C1446      H1455   1.084       .  S
C1447      C1448   1.414       .  A
C1447      S1451   1.804       .  S
C1448      C1449   1.406       .  A
C1449      C1450   1.403       .  A
C1449      H1456   1.084       .  S
S1451      H1454   1.406       .  S
S1452      H1453   1.406       .  S
C1457      C1458   1.409       .  A
C1457      C1462   1.414       .  A
C1458      C1459   1.402       .  A
C1458      H1467   1.083       .  S
C1459      C1460   1.415       .  A
C1459      S1463   1.805       .  S
C1460      C1461   1.408       .  A
C1461      C1462   1.398       .  A
C1461      H1468   1.084       .  S
S1463      H1466   1.406       .  S
S1464      H1465   1.406       .  S
C1469      C1470   1.405       .  A
C1469      C1474   1.415       .  A
C1470      C1471   1.400       .  A
C1470      H1479   1.084       .  S
C1471      C1472   1.420       .  A
C1471      S1475   1.806       .  S
C1472      C1473   1.406       .  A
C1473      C1474   1.399       .  A
S1475      H1478   1.405       .  S
C1481      C1482   1.408       .  A
C1481      C1486   1.408       .  A
C1482      C1483   1.410       .  A
C1482      H1491   1.083       .  S
C1483      C1484   1.421       .  A
C1483      S1487   1.804       .  S
C1484      C1485   1.404       .  A
C1485      C1486   1.394       .  A
C1485      H1492   1.061       .  S
C1486      S1488   1.807       .  S
S1487      H1490   1.407       .  S
S1488      H1489   1.406       .  S
C1493      C1494   1.407       .  A
C1493      C1498   1.417       .  A
C1494      C1495   1.400       .  A
C1494      H1503   1.084       .  S
C1495      C1496   1.414       .  A
C1495      S1499   1.805       .  S
C1496      C1497   1.400       .  A
C1497      C1498   1.395       .  A
C1497      H1504   1.084       .  S
C1498      S1500   1.805       .  S
S1499      H1502   1.405       .  S
S1500      H1501   1.406       .  S
C1505      C1506   1.406       .  A
C1505      C1510   1.419       .  A
C1506      C1507   1.402       .  A
C1506      H1515   1.084       .  S
C1507      C1508   1.414       .  A
C1507      S1511   1.806       .  S
C1508      C1509   1.402       .  A
C1509      C1510   1.400       .  A
C1509      H1516   1.084       .  S
C1510      S1512   1.803       .  S
S1511      H1514   1.404       .  S
S1512      H1513   1.408       .  S
C1517      C1518   1.407       .  A
C1517      C1522   1.417       .  A
C1518      C1519   1.397       .  A
C1518      H1527   1.084       .  S
C1519      C1520   1.416       .  A
C1519      S1523   1.809       .  S
C1520      C1521   1.404       .  A
C1521      C1522   1.400       .  A
C1521      H1528   1.084       .  S
C1522      S1524   1.802       .  S
S1523      H1526   1.400       .  S
S1524      H1525   1.408       .  S
C1529      C1530   1.402       .  A
C1529      C1534   1.415       .  A
C1530      C1531   1.403       .  A
C1530      H1539   1.084       .  S
C1531      C1532   1.421       .  A
C1531      S1535   1.803       .  S
C1532      C1533   1.408       .  A
C1533      C1534   1.404       .  A
C1533      H1540   1.084       .  S
C1534      S1536   1.805       .  S
S1535      H1538   1.408       .  S
S1536      H1537   1.405       .  S
C1541      C1542   1.408       .  A
C1541      C1546   1.419       .  A
C1542      C1543   1.402       .  A
C1542      H1551   1.084       .  S
C1543      C1544   1.412       .  A
C1543      S1547   1.807       .  S
C1544      C1545   1.402       .  A
C1545      C1546   1.402       .  A
C1545      H1552   1.083       .  S
C1546      S1548   1.802       .  S
S1547      H1550   1.403       .  S
S1548      H1549   1.408       .  S
C1553      C1554   1.409       .  A
C1553      C1558   1.413       .  A
C1554      C1555   1.399       .  A
C1554      H1563   1.084       .  S
C1555      C1556   1.409       .  A
C1555      S1559   1.808       .  S
C1556      C1557   1.404       .  A
C1557      C1558   1.402       .  A
C1557      H1564   1.082       .  S
C1558      S1560   1.808       .  S
S1559      H3498   1.402       .  S
S1560      H1561   1.407       .  S
H1562      S3495   1.402       .  S
C1565      C1566   1.405       .  A
C1565      C1570   1.414       .  A
C1566      C1567   1.407       .  A
C1566      H1575   1.084       .  S
C1567      C1568   1.418       .  A
C1567      S1571   1.802       .  S
C1568      C1569   1.407       .  A
C1569      C1570   1.404       .  A
C1569      H1576   1.084       .  S
C1570      S1572   1.801       .  S
S1571      H1574   1.407       .  S
S1572      H1573   1.406       .  S
C1577      C1578   1.410       .  A
C1577      C1582   1.423       .  A
C1578      C1579   1.403       .  A
C1578      H1587   1.083       .  S
C1579      C1580   1.415       .  A
C1579      S1583   1.806       .  S
C1580      C1581   1.403       .  A
C1581      C1582   1.404       .  A
C1581      H1588   1.082       .  S
C1582      S1584   1.801       .  S
S1583      H1586   1.404       .  S
S1584      H1585   1.408       .  S
C1589      C1590   1.402       .  A
C1589      C1594   1.413       .  A
C1590      C1591   1.403       .  A
C1590      H1599   1.084       .  S
C1591      C1592   1.418       .  A
C1591      S1595   1.803       .  S
C1592      C1593   1.404       .  A
C1593      C1594   1.398       .  A
C1593      H1600   1.084       .  S
C1594      S1596   1.808       .  S
S1595      H1598   1.407       .  S
S1596      H1597   1.401       .  S
C1601      C1602   1.403       .  A
C1601      C1606   1.413       .  A
C1602      C1603   1.399       .  A
C1602      H1611   1.083       .  S
C1603      C1604   1.416       .  A
C1603      S1607   1.803       .  S
C1604      C1605   1.407       .  A
C1605      C1606   1.402       .  A
C1605      H1612   1.084       .  S
C1606      S1608   1.806       .  S
S1607      H1610   1.408       .  S
S1608      H1609   1.403       .  S
C1613      C1614   1.402       .  A
C1613      C1618   1.412       .  A
C1614      C1615   1.402       .  A
C1614      H1623   1.084       .  S
C1615      C1616   1.419       .  A
C1615      S1619   1.802       .  S
C1616      C1617   1.406       .  A
C1617      C1618   1.397       .  A
C1617      H1624   1.084       .  S
C1618      S1620   1.805       .  S
S1619      H1622   1.407       .  S
S1620      H1621   1.405       .  S
C1625      C1626   1.406       .  A
C1625      C1630   1.419       .  A
C1626      C1627   1.404       .  A
C1626      H1635   1.084       .  S
C1627      C1628   1.414       .  A
C1627      S1631   1.804       .  S
C1628      C1629   1.402       .  A
C1629      C1630   1.402       .  A
C1629      H1636   1.084       .  S
C1630      S1632   1.804       .  S
S1632      H1633   1.407       .  S
C1637      C1638   1.407       .  A
C1637      C1642   1.418       .  A
C1638      C1639   1.406       .  A
C1638      H1647   1.084       .  S
C1639      C1640   1.414       .  A
C1639      S1643   1.800       .  S
C1640      C1641   1.403       .  A
C1641      C1642   1.404       .  A
C1641      H1648   1.084       .  S
C1642      S1644   1.803       .  S
S1643      H1646   1.406       .  S
S1644      H1645   1.407       .  S
C1649      C1650   1.407       .  A
C1649      C1654   1.417       .  A
C1650      C1651   1.407       .  A
C1650      H1659   1.083       .  S
C1651      C1652   1.416       .  A
C1651      S1655   1.806       .  S
C1652      C1653   1.401       .  A
C1653      C1654   1.397       .  A
C1653      H1660   1.082       .  S
C1654      S1656   1.806       .  S
S1655      H1658   1.401       .  S
S1656      H1657   1.406       .  S
C1661      C1662   1.401       .  A
C1661      C1666   1.413       .  A
C1662      C1663   1.399       .  A
C1662      H1671   1.084       .  S
C1663      C1664   1.421       .  A
C1663      S1667   1.806       .  S
C1664      C1665   1.403       .  A
C1665      C1666   1.394       .  A
C1665      H1672   1.084       .  S
C1666      S1668   1.805       .  S
S1667      H1670   1.404       .  S
S1668      H1669   1.406       .  S
C1673      C1674   1.408       .  A
C1673      C1678   1.416       .  A
C1674      C1675   1.400       .  A
C1674      H1683   1.083       .  S
C1675      C1676   1.417       .  A
C1675      S1679   1.806       .  S
C1676      C1677   1.407       .  A
C1677      C1678   1.400       .  A
C1677      H1684   1.083       .  S
S1679      H1682   1.406       .  S
S1680      H1681   1.406       .  S
C1685      C1686   1.407       .  A
C1685      C1690   1.410       .  A
C1686      C1687   1.403       .  A
C1686      H1695   1.083       .  S
C1687      C1688   1.414       .  A
C1687      S1691   1.804       .  S
C1688      C1689   1.405       .  A
C1689      C1690   1.394       .  A
C1689      H1696   1.084       .  S
C1690      S1692   1.804       .  S
S1691      H1694   1.406       .  S
S1692      H1693   1.406       .  S
C1697      C1698   1.405       .  A
C1697      C1702   1.414       .  A
C1698      C1699   1.402       .  A
C1698      H1707   1.084       .  S
C1699      C1700   1.421       .  A
C1699      S1703   1.805       .  S
C1700      C1701   1.409       .  A
C1701      C1702   1.402       .  A
C1701      H3644   1.080   1_455  S
C1702      S1704   1.801       .  S
S1703      H1706   1.406       .  S
S1704      H1705   1.407       .  S
H1708      C3637   1.080       .  S
C1709      C1710   1.407       .  A
C1709      C1714   1.417       .  A
C1710      C1711   1.400       .  A
C1710      H1719   1.083       .  S
C1711      C1712   1.416       .  A
C1712      C1713   1.407       .  A
C1713      C1714   1.398       .  A
C1713      H1720   1.083       .  S
C1714      S1716   1.806       .  S
S1715      H1718   1.406       .  S
S1716      H1717   1.407       .  S
C1721      C1722   1.406       .  A
C1721      C1726   1.411       .  A
C1722      C1723   1.399       .  A
C1722      H1731   1.084       .  S
C1723      C1724   1.412       .  A
C1723      S1727   1.803       .  S
C1724      C1725   1.408       .  A
C1725      C1726   1.398       .  A
C1725      H1732   1.084       .  S
C1726      S1728   1.805       .  S
S1728      H1729   1.405       .  S
C1733      C1734   1.406       .  A
C1733      C1738   1.413       .  A
C1734      C1735   1.408       .  A
C1734      H1743   1.083       .  S
C1735      C1736   1.420       .  A
C1735      S1739   1.803       .  S
C1736      C1737   1.401       .  A
C1737      C1738   1.392       .  A
C1737      H3680   1.070       .  S
C1738      S1740   1.807       .  S
S1739      H1742   1.407       .  S
S1740      H1741   1.406       .  S
H1744      C3673   1.071       .  S
C1745      C1746   1.407       .  A
C1745      C1750   1.410       .  A
C1746      C1747   1.402       .  A
C1746      H1755   1.084       .  S
C1747      C1748   1.413       .  A
C1747      S1751   1.803       .  S
C1748      C1749   1.406       .  A
C1749      C1750   1.398       .  A
C1749      H1756   1.084       .  S
C1750      S1752   1.804       .  S
S1751      H1754   1.406       .  S
S1752      H1753   1.406       .  S
C1757      C1758   1.405       .  A
C1757      C1762   1.415       .  A
C1758      C1759   1.404       .  A
C1758      H1767   1.084       .  S
C1759      C1760   1.417       .  A
C1759      S1763   1.803       .  S
C1760      C1761   1.399       .  A
C1761      C1762   1.397       .  A
C1761      H1768   1.077       .  S
C1762      S1764   1.811       .  S
S1763      H1766   1.403       .  S
S1764      H1765   1.406       .  S
C1769      C1770   1.408       .  A
C1769      C1774   1.420       .  A
C1770      C1771   1.396       .  A
C1770      H1779   1.084       .  S
C1771      C1772   1.413       .  A
C1771      S1775   1.812       .  S
C1772      C1773   1.404       .  A
C1773      C1774   1.406       .  A
C1773      H1780   1.084       .  S
C1774      S1776   1.805       .  S
S1775      H1778   1.402       .  S
S1776      H1777   1.406       .  S
C1781      C1782   1.409       .  A
C1781      C1786   1.428       .  A
C1782      C1783   1.398       .  A
C1782      H1791   1.078       .  S
C1783      C1784   1.413       .  A
C1783      S1787   1.805       .  S
C1784      C1785   1.401       .  A
C1785      C1786   1.402       .  A
C1785      H1792   1.081       .  S
C1786      S1788   1.806       .  S
S1787      H1790   1.406       .  S
S1788      H1789   1.408       .  S
C1793      C1794   1.402       .  A
C1793      C1798   1.414       .  A
C1794      C1795   1.402       .  A
C1794      H1803   1.084       .  S
C1795      C1796   1.419       .  A
C1795      S1799   1.808       .  S
C1796      C1797   1.404       .  A
C1797      C1798   1.404       .  A
C1797      H1804   1.084       .  S
C1798      S1800   1.803       .  S
S1799      H1802   1.400       .  S
S1800      H1801   1.406       .  S
C1805      C1806   1.403       .  A
C1805      C1810   1.412       .  A
C1806      C1807   1.401       .  A
C1806      H1815   1.084       .  S
C1807      C1808   1.418       .  A
C1808      C1809   1.404       .  A
C1809      C1810   1.400       .  A
C1809      H1816   1.084       .  S
C1810      S1812   1.803       .  S
S1811      H1814   1.400       .  S
S1812      H1813   1.407       .  S
C1817      C1818   1.405       .  A
C1817      C1822   1.414       .  A
C1818      C1819   1.403       .  A
C1818      H1827   1.084       .  S
C1819      C1820   1.414       .  A
C1819      S1823   1.805       .  S
C1820      C1821   1.404       .  A
C1821      C1822   1.400       .  A
C1821      H1828   1.084       .  S
C1822      S1824   1.799       .  S
S1823      H1826   1.405       .  S
S1824      H1825   1.407       .  S
C1829      C1830   1.403       .  A
C1829      C1834   1.414       .  A
C1830      C1831   1.403       .  A
C1830      H1839   1.082       .  S
C1831      C1832   1.420       .  A
C1831      S1835   1.800       .  S
C1832      C1833   1.410       .  A
C1833      C1834   1.405       .  A
C1833      H1840   1.083       .  S
C1834      S1836   1.806       .  S
S1835      H1838   1.408       .  S
S1836      H1837   1.404       .  S
C1841      C1842   1.403       .  A
C1841      C1846   1.415       .  A
C1842      C1843   1.401       .  A
C1842      H1851   1.084       .  S
C1843      C1844   1.414       .  A
C1843      S1847   1.805       .  S
C1844      C1845   1.402       .  A
C1845      C1846   1.401       .  A
C1845      H1852   1.083       .  S
C1846      S1848   1.803       .  S
S1847      H1850   1.405       .  S
S1848      H1849   1.407       .  S
C1853      C1854   1.405       .  A
C1853      C1858   1.416       .  A
C1854      C1855   1.399       .  A
C1854      H1863   1.082       .  S
C1855      C1856   1.412       .  A
C1855      S1859   1.804       .  S
C1856      C1857   1.404       .  A
C1857      C1858   1.402       .  A
C1857      H1864   1.084       .  S
C1858      S1860   1.805       .  S
S1859      H1862   1.407       .  S
S1860      H1861   1.404       .  S
C1865      C1866   1.398       .  A
C1865      C1870   1.409       .  A
C1866      C1867   1.399       .  A
C1866      H1875   1.083       .  S
C1867      C1868   1.419       .  A
C1867      S1871   1.803       .  S
C1868      C1869   1.406       .  A
C1869      C1870   1.403       .  A
C1869      H1876   1.083       .  S
S1871      H1874   1.408       .  S
S1872      H1873   1.407       .  S
C1877      C1878   1.403       .  A
C1877      C1882   1.413       .  A
C1878      C1879   1.400       .  A
C1878      H1887   1.082       .  S
C1879      C1880   1.418       .  A
C1879      S1883   1.800       .  S
C1880      C1881   1.409       .  A
C1881      C1882   1.401       .  A
C1881      H1888   1.084       .  S
C1882      S1884   1.805       .  S
S1883      H1886   1.408       .  S
S1884      H1885   1.406       .  S
C1889      C1890   1.402       .  A
C1889      C1894   1.414       .  A
C1890      C1891   1.404       .  A
C1890      H1899   1.083       .  S
C1891      C1892   1.416       .  A
C1891      S1895   1.808       .  S
C1892      C1893   1.407       .  A
C1893      C1894   1.404       .  A
C1893      H1900   1.084       .  S
C1894      S1896   1.805       .  S
S1895      H1898   1.406       .  S
S1896      H3833   1.404       .  S
H1897      S3832   1.404       .  S
C1901      C1902   1.409       .  A
C1901      C1906   1.422       .  A
C1902      C1903   1.402       .  A
C1902      H1911   1.083       .  S
C1903      C1904   1.414       .  A
C1903      S1907   1.805       .  S
C1904      C1905   1.404       .  A
C1905      C1906   1.406       .  A
C1905      H1912   1.083       .  S
C1906      S1908   1.800       .  S
S1907      H1910   1.406       .  S
S1908      H1909   1.408       .  S
C1913      C1914   1.404       .  A
C1913      C1918   1.417       .  A
C1914      C1915   1.398       .  A
C1914      H1923   1.084       .  S
C1915      C1916   1.413       .  A
C1915      S1919   1.801       .  S
C1916      C1917   1.401       .  A
C1917      C1918   1.399       .  A
C1917      H1924   1.084       .  S
C1918      S1920   1.803       .  S
S1919      H1922   1.406       .  S
S1920      H1921   1.407       .  S
C1925      C1926   1.401       .  A
C1925      C1930   1.414       .  A
C1926      C1927   1.403       .  A
C1926      H1935   1.083       .  S
C1927      C1928   1.423       .  A
C1927      S1931   1.802       .  S
C1928      C1929   1.409       .  A
C1929      C1930   1.404       .  A
C1929      H1936   1.083       .  S
C1930      S1932   1.805       .  S
S1931      H1934   1.408       .  S
S1932      H1933   1.406       .  S
Zn1937     O1941   1.954   1_554  S
Zn1937     O1942   2.038       .  S
Zn1937     O1946   2.019       .  S
Zn1937     O1953   2.011       .  S
Zn1938     O1941   1.957       .  S
Zn1938     O1943   2.006       .  S
Zn1938     O1945   2.036   1_556  S
Zn1938     O1949   2.028       .  S
Zn1939     O1941   1.961       .  S
Zn1939     O1944   2.029   1_556  S
Zn1939     O1947   2.032       .  S
Zn1939     O1950   2.024       .  S
Zn1940     O1941   1.973       .  S
Zn1940     O1948   2.054       .  S
Zn1940     O1951   2.039       .  S
Zn1940     O1952   2.026   1_556  S
O1942      C1954   1.276       .  A
O1943      C1955   1.273       .  A
O1944      C1956   1.274       .  A
O1945      C1954   1.273       .  A
O1946      C1956   1.274       .  A
O1947      C1955   1.277       .  A
O1948      C1957   1.279       .  A
O1949      C1958   1.276       .  A
O1950      C1957   1.273       .  A
O1951      C1958   1.276       .  A
O1952      C1959   1.276       .  A
O1953      C1959   1.274       .  A
C1954      C2869   1.503       .  S
C1955      C2836   1.485       .  S
C1956      C2848   1.493       .  S
C1957      C2896   1.501       .  S
C1958      C2860   1.490       .  S
C1959      C2881   1.483       .  S
Zn1960     O1964   1.962       .  S
Zn1960     O1965   2.033       .  S
Zn1960     O1969   2.040       .  S
Zn1960     O1976   2.049       .  S
Zn1961     O1964   1.967       .  S
Zn1961     O1966   2.035       .  S
Zn1961     O1968   2.018       .  S
Zn1961     O1972   2.036       .  S
Zn1962     O1964   1.958       .  S
Zn1962     O1967   2.029       .  S
Zn1962     O1970   2.038       .  S
Zn1962     O1973   2.029       .  S
Zn1963     O1964   1.959       .  S
Zn1963     O1971   2.017       .  S
Zn1963     O1974   2.019       .  S
Zn1963     O1975   2.013       .  S
O1965      C1977   1.277       .  A
O1966      C1978   1.276       .  A
O1967      C1979   1.274       .  A
O1968      C1977   1.274       .  A
O1969      C1979   1.276       .  A
O1970      C1978   1.275       .  A
O1971      C1980   1.274       .  A
O1972      C1981   1.275       .  A
O1973      C1980   1.276       .  A
O1974      C1981   1.274       .  A
O1975      C1982   1.271       .  A
O1976      C1982   1.277       .  A
C1977      C2824   1.478       .  S
C1978      C2800   1.500       .  S
C1979      C2761   1.482       .  S
C1980      C2773   1.479       .  S
C1981      C2809   1.481       .  S
C1982      C2785   1.485       .  S
N1983      C1988   1.350       .  A
N1983      C2955   1.350       .  A
N1983      H2015   1.039       .  S
N1984      C1991   1.351       .  A
N1984      C1992   1.353       .  A
N1985      C1990   1.356       .  A
N1985      C2957   1.357       .  A
N1985      H2016   1.039       .  S
N1986      C1993   1.356       .  A
N1986      C1994   1.353       .  A
C1987      N2951   1.350   1_545  A
C1987      C1995   1.386       .  A
C1987      C2003   1.410       .  A
C1988      C2004   1.410       .  A
C1988      C1996   1.387       .  A
C1989      N2953   1.357   1_545  A
C1989      C1997   1.384       .  A
C1989      C2006   1.422       .  A
C1990      C2005   1.424       .  A
C1990      C1998   1.390       .  A
C1991      C2003   1.414       .  A
C1991      C1999   1.381       .  A
C1992      C2006   1.416       .  A
C1992      C2000   1.386       .  A
C1993      C2001   1.385       .  A
C1993      C2004   1.416       .  A
C1994      C2002   1.389       .  A
C1994      C2005   1.422       .  A
C1995      C2964   1.377   1_545  A
C1995      H2007   1.082       .  S
C1996      C2963   1.377       .  A
C1996      H2008   1.082       .  S
C1997      C2966   1.371   1_545  A
C1997      H2009   1.082       .  S
C1998      C2965   1.371       .  A
C1998      H2010   1.076       .  S
C1999      C2000   1.373       .  A
C1999      H2011   1.079       .  S
C2000      H2012   1.082       .  S
C2001      C2002   1.368       .  A
C2001      H2013   1.080       .  S
C2002      H2014   1.081       .  S
C2003      C2713   1.490       .  S
C2004      C2725   1.496       .  S
C2005      C2752   1.502       .  S
C2006      C2737   1.508       .  S
N2017      C2022   1.352       .  A
N2017      C2021   1.354       .  A
N2017      H2049   1.043       .  S
N2018      C2025   1.351       .  A
N2018      C2026   1.350       .  A
N2019      C2024   1.355       .  A
N2019      C2023   1.356       .  A
N2019      H2050   1.037       .  S
N2020      C2027   1.352       .  A
N2020      C2028   1.350       .  A
C2021      C2029   1.388       .  A
C2021      C2037   1.417       .  A
C2022      C2038   1.414       .  A
C2022      C2030   1.386       .  A
C2023      C2031   1.388       .  A
C2023      C2040   1.424       .  A
C2024      C2039   1.419       .  A
C2024      C2032   1.387       .  A
C2025      C2037   1.418       .  A
C2025      C2033   1.386       .  A
C2026      C2040   1.415       .  A
C2026      C2034   1.386       .  A
C2027      C2035   1.386       .  A
C2027      C2038   1.416       .  A
C2028      C2036   1.386       .  A
C2028      C2039   1.414       .  A
C2029      C2030   1.376       .  A
C2029      H2041   1.082       .  S
C2030      H2042   1.082       .  S
C2031      C2032   1.371       .  A
C2031      H2043   1.082       .  S
C2032      H2044   1.082       .  S
C2033      C2034   1.377       .  A
C2033      H2045   1.082       .  S
C2034      H2046   1.080       .  S
C2035      C2036   1.373       .  A
C2035      H2047   1.081       .  S
C2036      H2048   1.080       .  S
C2037      C2665   1.505       .  S
C2038      C2677   1.501       .  S
C2039      C2689   1.490       .  S
C2040      C2701   1.497       .  S
N2051      C2055   1.356       .  A
N2051      H2083   1.038       .  S
N2052      C2059   1.355       .  A
N2052      C2060   1.351       .  A
N2053      C2057   1.355   1_455  A
N2053      H2084   1.040       .  S
N2054      C2061   1.349       .  A
N2054      C2062   1.352       .  A
C2055      C2063   1.389       .  A
C2055      C2071   1.421       .  A
C2056      C2072   1.411       .  A
C2056      C2064   1.384       .  A
C2057      C2065   1.387       .  A
C2057      C2074   1.416       .  A
C2058      C2073   1.421       .  A
C2058      C2066   1.385       .  A
C2059      C2071   1.422       .  A
C2059      C2067   1.386       .  A
C2060      C2074   1.421       .  A
C2060      C2068   1.386       .  A
C2061      C2069   1.386       .  A
C2061      C2072   1.414       .  A
C2062      C2070   1.386       .  A
C2062      C2073   1.416       .  A
C2063      H2075   1.082       .  S
C2064      H2076   1.082       .  S
C2065      H2077   1.080       .  S
C2066      H2078   1.079       .  S
C2067      C2068   1.375       .  A
C2067      H2079   1.081       .  S
C2068      H2080   1.082       .  S
C2069      C2070   1.369       .  A
C2069      H2081   1.080       .  S
C2070      H2082   1.081       .  S
C2071      C2617   1.503       .  S
C2072      C2629   1.485       .  S
C2073      C2644   1.505       .  S
C2074      C2653   1.491       .  S
C2085      C2764   1.487       .  S
C2085      C2090   1.405       .  A
C2086      C2608   1.491       .  S
C2086      C2087   1.409       .  A
C2087      C2088   1.410       .  A
C2087      H2092   1.084       .  S
C2088      C2704   1.502       .  S
C2089      C2740   1.486       .  S
C2089      C2090   1.402       .  A
C2090      H2091   1.085       .  S
C2093      C2788   1.484       .  S
C2093      C3062   1.413   1_545  A
C2093      C2098   1.399       .  A
C2094      C2596   1.487       .  S
C2094      C3061   1.413       .  A
C2094      C2095   1.407       .  A
C2095      C2096   1.411       .  A
C2095      H2100   1.084       .  S
C2096      C2641   1.502       .  S
C2096      C3065   1.426       .  A
C2097      C2692   1.490       .  S
C2097      C3064   1.426   1_545  A
C2097      C2098   1.401       .  A
C2098      H2099   1.085       .  S
C2101      C2581   1.482       .  S
C2101      C2102   1.415       .  A
C2101      C2106   1.403       .  A
C2102      C2893   1.491       .  S
C2102      C2103   1.409       .  A
C2103      C2104   1.407       .  A
C2103      H2108   1.084       .  S
C2104      C2620   1.490       .  S
C2104      C2105   1.420       .  A
C2105      C2728   1.489       .  S
C2105      C2106   1.399       .  A
C2106      H2107   1.085       .  S
C2109      C2821   1.488       .  S
C2109      C2110   1.409       .  A
C2109      C2114   1.400       .  A
C2110      C2569   1.484       .  S
C2110      C2111   1.402       .  A
C2111      C2112   1.408       .  A
C2111      H2116   1.082       .  S
C2112      C2749   1.515       .  S
C2112      C2113   1.432       .  A
C2113      C2656   1.487       .  S
C2113      C2114   1.407       .  A
C2114      H2115   1.085       .  S
C2117      C2557   1.478       .  S
C2117      C3086   1.407       .  A
C2117      C2122   1.399       .  A
C2118      C2833   1.476       .  S
C2118      C3085   1.407   1_545  A
C2118      C2119   1.400       .  A
C2119      C2120   1.406       .  A
C2119      H2124   1.084       .  S
C2120      C2680   1.501       .  S
C2120      C3089   1.426   1_545  A
C2121      C2632   1.487       .  S
C2121      C3088   1.426       .  A
C2121      C2122   1.404       .  A
C2122      H2123   1.084       .  S
C2125      C2857   1.485       .  S
C2125      C2130   1.401       .  A
C2126      C2548   1.495       .  S
C2126      C2127   1.410       .  A
C2127      C2128   1.413       .  A
C2127      H2132   1.083       .  S
C2128      C2668   1.507       .  S
C2129      C2716   1.487       .  S
C2129      C2130   1.403       .  A
C2130      H2131   1.085       .  S
Zn2133     O2137   1.957       .  S
Zn2133     O2138   2.021       .  S
Zn2133     O2142   2.020       .  S
Zn2133     O2149   2.036       .  S
Zn2134     O2137   1.975       .  S
Zn2134     O2139   2.041       .  S
Zn2134     O2141   2.051       .  S
Zn2134     O2145   2.043       .  S
Zn2135     O2137   1.970       .  S
Zn2135     O2140   2.026       .  S
Zn2135     O2143   2.054       .  S
Zn2135     O2146   2.037       .  S
Zn2136     O2137   1.964       .  S
Zn2136     O2144   2.027       .  S
Zn2136     O2147   1.996       .  S
Zn2136     O2148   2.042       .  S
O2138      C2150   1.274       .  A
O2139      C2151   1.276       .  A
O2140      C2152   1.275       .  A
O2141      C2150   1.278       .  A
O2142      C2152   1.275       .  A
O2143      C2151   1.278       .  A
O2144      C2153   1.275       .  A
O2145      C2154   1.278       .  A
O2146      C2153   1.276       .  A
O2147      C2154   1.272       .  A
O2148      C2155   1.275       .  A
O2149      C2155   1.275       .  A
C2150      C2593   1.492       .  S
C2151      C2536   1.498       .  S
C2152      C2572   1.486       .  S
C2153      C2509   1.493       .  S
C2154      C2521   1.484       .  S
C2155      C2605   1.495       .  S
Zn2156     O2160   1.956   1_556  S
Zn2156     O2161   2.022       .  S
Zn2156     O2165   2.026       .  S
Zn2156     O2172   2.041       .  S
Zn2157     O2160   1.964       .  S
Zn2157     O2162   2.047       .  S
Zn2157     O2164   2.016   1_554  S
Zn2157     O2168   2.006       .  S
Zn2158     O2160   1.960       .  S
Zn2158     O2163   2.020   1_554  S
Zn2158     O2166   2.024       .  S
Zn2158     O2169   2.006       .  S
Zn2159     O2160   1.970       .  S
Zn2159     O2167   2.025       .  S
Zn2159     O2170   2.040       .  S
Zn2159     O2171   2.035   1_554  S
O2161      C2173   1.276       .  A
O2162      C2174   1.277       .  A
O2163      C2175   1.273       .  A
O2164      C2173   1.273       .  A
O2165      C2175   1.276       .  A
O2166      C2174   1.273       .  A
O2167      C2176   1.274       .  A
O2168      C2177   1.272       .  A
O2169      C2176   1.275       .  A
O2170      C2177   1.277       .  A
O2171      C2178   1.273       .  A
O2172      C2178   1.277       .  A
C2173      C2584   1.487       .  S
C2174      C2500   1.498       .  S
C2175      C2560   1.485       .  S
C2176      C2485   1.488       .  S
C2177      C2473   1.489       .  S
C2178      C2545   1.505       .  S
N2179      C2184   1.357       .  A
N2179      H2211   1.041       .  S
N2180      C2187   1.346       .  A
N2180      C2188   1.349       .  A
N2181      C2186   1.350       .  A
N2181      H2212   1.041       .  S
N2182      C2189   1.353       .  A
N2182      C2190   1.352       .  A
C2183      C2191   1.385       .  A
C2183      C2199   1.423       .  A
C2184      C2200   1.426       .  A
C2184      C2192   1.389       .  A
C2185      C2193   1.386       .  A
C2185      C2202   1.416       .  A
C2186      C2201   1.410       .  A
C2186      C2194   1.387       .  A
C2187      C2199   1.411       .  A
C2187      C2195   1.387       .  A
C2188      C2202   1.409       .  A
C2188      C2196   1.384       .  A
C2189      C2197   1.387       .  A
C2189      C2200   1.416       .  A
C2190      C2198   1.385       .  A
C2190      C2201   1.415       .  A
C2191      H2203   1.081       .  S
C2192      H2204   1.080       .  S
C2193      H2205   1.079       .  S
C2194      H2206   1.080       .  S
C2195      C2196   1.377       .  A
C2195      H2207   1.082       .  S
C2196      H2208   1.082       .  S
C2197      C2198   1.373       .  A
C2197      H2209   1.081       .  S
C2198      H2210   1.081       .  S
C2199      C2428   1.502       .  S
C2200      C2449   1.501       .  S
C2201      C2464   1.486       .  S
C2202      C2437   1.496       .  S
N2213      C2218   1.354       .  A
N2213      C2217   1.355       .  A
N2213      H2245   1.035       .  S
N2214      C2221   1.351       .  A
N2214      C2222   1.351       .  A
N2215      C2220   1.357       .  A
N2215      C2219   1.356       .  A
N2215      H2246   1.040       .  S
N2216      C2223   1.355       .  A
N2216      C2224   1.354       .  A
C2217      C2225   1.387       .  A
C2217      C2233   1.419       .  A
C2218      C2234   1.420       .  A
C2218      C2226   1.388       .  A
C2219      C2227   1.385       .  A
C2219      C2236   1.422       .  A
C2220      C2235   1.420       .  A
C2220      C2228   1.387       .  A
C2221      C2233   1.416       .  A
C2221      C2229   1.387       .  A
C2222      C2236   1.415       .  A
C2222      C2230   1.386       .  A
C2223      C2231   1.386       .  A
C2223      C2234   1.420       .  A
C2224      C2232   1.385       .  A
C2224      C2235   1.420       .  A
C2225      C2226   1.369       .  A
C2225      H2237   1.081       .  S
C2226      H2238   1.081       .  S
C2227      C2228   1.371       .  A
C2227      H2239   1.078       .  S
C2228      H2240   1.080       .  S
C2229      C2230   1.369       .  A
C2229      H2241   1.080       .  S
C2230      H2242   1.082       .  S
C2231      C2232   1.374       .  A
C2231      H2243   1.082       .  S
C2232      H2244   1.081       .  S
C2233      C2380   1.491       .  S
C2234      C2401   1.494       .  S
C2235      C2416   1.500       .  S
C2236      C2389   1.502       .  S
C2247      C2776   1.484       .  S
C2247      C3216   1.417   1_545  A
C2247      C2252   1.406       .  A
C2248      C2533   1.496       .  S
C2248      C3215   1.417       .  A
C2248      C2249   1.406       .  A
C2249      C2250   1.410       .  A
C2249      H2254   1.084       .  S
C2250      C2404   1.493       .  S
C2250      C3219   1.424       .  A
C2251      C2425   1.499       .  S
C2251      C3218   1.424   1_545  A
C2251      C2252   1.404       .  A
C2252      H2253   1.084       .  S
N2255      C3228   1.361       .  A
N2255      C2259   1.360   1_565  A
N2255      H2287   1.037       .  S
N2256      C2263   1.353       .  A
N2256      C2264   1.356       .  A
N2257      C3230   1.354   1_545  A
N2257      C2261   1.352       .  A
N2257      H2288   1.039       .  S
N2258      C2265   1.351       .  A
N2258      C2266   1.351       .  A
C2259      C2267   1.390   1_545  A
C2259      C2275   1.434       .  A
C2260      N3223   1.361       .  A
C2260      C2276   1.429       .  A
C2260      C2268   1.386       .  A
C2261      C2269   1.386       .  A
C2261      C2278   1.415       .  A
C2262      N3225   1.354       .  A
C2262      C2277   1.417       .  A
C2262      C2270   1.389       .  A
C2263      C2275   1.427       .  A
C2263      C2271   1.391       .  A
C2264      C2278   1.416       .  A
C2264      C2272   1.379       .  A
C2265      C2273   1.384       .  A
C2265      C2276   1.413       .  A
C2266      C2274   1.388       .  A
C2266      C2277   1.417       .  A
C2267      C3236   1.365       .  A
C2267      H2279   1.080   1_565  S
C2268      C3235   1.365       .  A
C2268      H2280   1.080       .  S
C2269      C3238   1.369   1_545  A
C2269      H2281   1.082       .  S
C2270      C3237   1.369       .  A
C2270      H2282   1.080       .  S
C2271      C2272   1.368       .  A
C2271      H2283   1.076       .  S
C2272      H2284   1.082       .  S
C2273      C2274   1.372       .  A
C2273      H2285   1.082       .  S
C2274      H2286   1.080       .  S
C2275      C2353   1.508       .  S
C2276      C2332   1.511       .  S
C2277      C2344   1.491       .  S
C2278      C2368   1.502       .  S
C2289      C2872   1.496       .  S
C2289      C3258   1.418   1_545  A
C2289      C2294   1.407       .  A
C2290      C2497   1.491       .  S
C2290      C3257   1.418       .  A
C2290      C2291   1.408       .  A
C2291      C2292   1.407       .  A
C2291      H2296   1.084       .  S
C2292      C2413   1.500       .  S
C2292      C3261   1.423       .  A
C2293      C2440   1.496       .  S
C2293      C3260   1.423   1_545  A
C2293      C2294   1.405       .  A
C2294      H2295   1.083       .  S
C2297      C2512   1.484       .  S
C2297      C2298   1.411       .  A
C2297      C2302   1.408       .  A
C2298      C2812   1.484       .  S
C2298      C2299   1.399       .  A
C2299      C2300   1.401       .  A
C2299      H2304   1.085       .  S
C2300      C2356   1.485       .  S
C2300      C2301   1.431       .  A
C2301      C2452   1.512       .  S
C2301      C2302   1.411       .  A
C2302      H2303   1.084       .  S
C2305      C2845   1.490       .  S
C2305      C2306   1.414       .  A
C2305      C2310   1.407       .  A
C2306      C2476   1.486       .  S
C2306      C2307   1.401       .  A
C2307      C2308   1.403       .  A
C2307      H2312   1.084       .  S
C2308      C2461   1.489       .  S
C2308      C2309   1.424       .  A
C2309      C2365   1.501       .  S
C2309      C2310   1.406       .  A
C2310      H2311   1.083       .  S
C2313      C2797   1.493       .  S
C2313      C2318   1.400       .  A
C2314      C2524   1.476       .  S
C2314      C2315   1.403       .  A
C2315      C2316   1.405       .  A
C2315      H2320   1.083       .  S
C2316      C2329   1.508       .  S
C2317      C2377   1.489       .  S
C2317      C2318   1.407       .  A
C2318      H2319   1.084       .  S
C2321      C2884   1.481       .  S
C2321      C2326   1.402       .  A
C2322      C2488   1.484       .  S
C2322      C2323   1.400       .  A
C2323      C2324   1.401       .  A
C2323      H2328   1.084       .  S
C2324      C2341   1.491       .  S
C2325      C2392   1.497       .  S
C2325      C2326   1.405       .  A
C2326      H2327   1.084       .  S
C2329      C2330   1.407       .  A
C2329      C2334   1.424       .  A
C2330      C2331   1.402       .  A
C2330      H2339   1.082       .  S
C2331      C2332   1.421       .  A
C2331      S2335   1.805       .  S
C2332      C2333   1.405       .  A
C2333      C2334   1.401       .  A
C2333      H2340   1.084       .  S
C2334      S2336   1.806       .  S
S2335      H2338   1.406       .  S
S2336      H2337   1.407       .  S
C2341      C2342   1.407       .  A
C2341      C2346   1.411       .  A
C2342      C2343   1.396       .  A
C2342      H2351   1.083       .  S
C2343      C2344   1.413       .  A
C2343      S2347   1.805       .  S
C2344      C2345   1.406       .  A
C2345      C2346   1.398       .  A
C2345      H2352   1.084       .  S
S2347      H2350   1.406       .  S
S2348      H2349   1.406       .  S
C2353      C2354   1.410       .  A
C2353      C2358   1.421       .  A
C2354      C2355   1.394       .  A
C2354      H2363   1.082       .  S
C2355      C2356   1.399       .  A
C2355      S2359   1.811       .  S
C2356      C2357   1.407       .  A
C2357      C2358   1.407       .  A
C2357      H2364   1.083       .  S
C2358      S2360   1.806       .  S
S2359      H2362   1.407       .  S
S2360      H2361   1.406       .  S
C2365      C2366   1.409       .  A
C2365      C2370   1.418       .  A
C2366      C2367   1.403       .  A
C2366      H2375   1.083       .  S
C2367      C2368   1.416       .  A
C2367      S2371   1.802       .  S
C2368      C2369   1.405       .  A
C2369      C2370   1.397       .  A
C2369      H2376   1.084       .  S
C2370      S2372   1.804       .  S
S2371      H2374   1.405       .  S
S2372      H2373   1.407       .  S
C2377      C2378   1.406       .  A
C2377      C2382   1.414       .  A
C2378      C2379   1.397       .  A
C2378      H2387   1.084       .  S
C2379      C2380   1.412       .  A
C2379      S2383   1.805       .  S
C2380      C2381   1.406       .  A
C2381      C2382   1.398       .  A
C2381      H2388   1.084       .  S
S2383      H2386   1.405       .  S
S2384      H2385   1.406       .  S
C2389      C2390   1.408       .  A
C2389      C2394   1.416       .  A
C2390      C2391   1.397       .  A
C2390      H2399   1.083       .  S
C2391      C2392   1.413       .  A
C2392      C2393   1.408       .  A
C2393      C2394   1.400       .  A
C2393      H2400   1.083       .  S
C2394      S2396   1.805       .  S
S2395      H2398   1.406       .  S
S2396      H2397   1.406       .  S
C2401      C2402   1.405       .  A
C2401      C2406   1.414       .  A
C2402      C2403   1.399       .  A
C2402      H2411   1.084       .  S
C2403      C2404   1.415       .  A
C2403      S3375   1.804       .  S
C2404      C2405   1.406       .  A
C2405      C2406   1.400       .  A
C2405      H2412   1.084       .  S
C2406      S2408   1.804       .  S
S2407      C3371   1.804   1_545  S
S2407      H2410   1.406       .  S
S2408      H2409   1.405       .  S
C2413      C2414   1.406       .  A
C2413      C2418   1.416       .  A
C2414      C2415   1.402       .  A
C2414      H2423   1.084       .  S
C2415      C2416   1.414       .  A
C2415      S2419   1.804       .  S
C2416      C2417   1.406       .  A
C2417      C2418   1.403       .  A
C2417      H2424   1.084       .  S
C2418      S3388   1.801       .  S
S2419      H2422   1.406       .  S
S2420      C3386   1.801   1_545  S
S2420      H2421   1.406       .  S
C2425      C2426   1.409       .  A
C2425      C2430   1.414       .  A
C2426      C2427   1.402       .  A
C2426      H2435   1.083       .  S
C2427      C2428   1.415       .  A
C2427      S2431   1.805       .  S
C2428      C2429   1.408       .  A
C2429      C2430   1.398       .  A
C2429      H2436   1.084       .  S
C2430      S3400   1.804       .  S
S2431      H2434   1.406       .  S
S2432      C3398   1.804       .  S
S2432      H2433   1.406       .  S
C2437      C2438   1.405       .  A
C2437      C2442   1.415       .  A
C2438      C2439   1.400       .  A
C2438      H2447   1.084       .  S
C2439      C2440   1.420       .  A
C2439      S2443   1.806       .  S
C2440      C2441   1.406       .  A
C2441      C2442   1.399       .  A
C2441      H3416   1.083       .  S
C2442      S3412   1.801       .  S
S2443      H2446   1.405       .  S
S2444      C3410   1.801       .  S
S2444      H3413   1.406       .  S
H2445      S3412   1.406       .  S
H2448      C3409   1.083       .  S
C2449      C2450   1.408       .  A
C2449      C2454   1.408       .  A
C2450      C2451   1.409       .  A
C2450      H2459   1.083       .  S
C2451      C2452   1.421       .  A
C2451      S2455   1.804       .  S
C2452      C2453   1.404       .  A
C2453      C2454   1.394       .  A
C2453      H2460   1.061       .  S
C2454      S2456   1.807       .  S
S2455      H2458   1.407       .  S
S2456      H2457   1.406       .  S
C2461      C2462   1.407       .  A
C2461      C2466   1.417       .  A
C2462      C2463   1.400       .  A
C2462      H2471   1.084       .  S
C2463      C2464   1.414       .  A
C2463      S2467   1.805       .  S
C2464      C2465   1.400       .  A
C2465      C2466   1.395       .  A
C2465      H2472   1.084       .  S
C2466      S2468   1.805       .  S
S2467      H2470   1.405       .  S
S2468      H2469   1.406       .  S
C2473      C2474   1.406       .  A
C2473      C2478   1.419       .  A
C2474      C2475   1.402       .  A
C2474      H2483   1.084       .  S
C2475      C2476   1.414       .  A
C2475      S2479   1.806       .  S
C2476      C2477   1.402       .  A
C2477      C2478   1.400       .  A
C2477      H2484   1.084       .  S
C2478      S2480   1.803       .  S
S2479      H2482   1.404       .  S
S2480      H2481   1.408       .  S
C2485      C2486   1.407       .  A
C2485      C2490   1.417       .  A
C2486      C2487   1.397       .  A
C2486      H2495   1.084       .  S
C2487      C2488   1.416       .  A
C2487      S2491   1.809       .  S
C2488      C2489   1.404       .  A
C2489      C2490   1.400       .  A
C2489      H2496   1.084       .  S
C2490      S2492   1.802       .  S
S2491      H2494   1.400       .  S
S2492      H2493   1.408       .  S
C2497      C2498   1.402       .  A
C2497      C2502   1.415       .  A
C2498      C2499   1.403       .  A
C2498      H2507   1.084       .  S
C2499      C2500   1.421       .  A
C2499      S2503   1.803       .  S
C2500      C2501   1.408       .  A
C2501      C2502   1.404       .  A
C2501      H2508   1.084       .  S
C2502      S2504   1.805       .  S
S2503      H2506   1.408       .  S
S2504      H2505   1.405       .  S
C2509      C2510   1.408       .  A
C2509      C2514   1.419       .  A
C2510      C2511   1.402       .  A
C2510      H2519   1.084       .  S
C2511      C2512   1.412       .  A
C2511      S2515   1.807       .  S
C2512      C2513   1.402       .  A
C2513      C2514   1.402       .  A
C2513      H2520   1.083       .  S
C2514      S2516   1.802       .  S
S2515      H2518   1.403       .  S
S2516      H2517   1.408       .  S
C2521      C2522   1.409       .  A
C2521      C2526   1.413       .  A
C2522      C2523   1.399       .  A
C2522      H2531   1.084       .  S
C2523      C2524   1.409       .  A
C2523      S2527   1.808       .  S
C2524      C2525   1.404       .  A
C2525      C2526   1.402       .  A
C2525      H2532   1.082       .  S
C2526      S2528   1.808       .  S
S2528      H2529   1.407       .  S
C2533      C2534   1.405       .  A
C2533      C2538   1.414       .  A
C2534      C2535   1.407       .  A
C2534      H2543   1.084       .  S
C2535      C2536   1.418       .  A
C2535      S2539   1.802       .  S
C2536      C2537   1.407       .  A
C2537      C2538   1.404       .  A
C2537      H2544   1.084       .  S
C2538      S2540   1.801       .  S
S2539      H2542   1.407       .  S
S2540      H2541   1.406       .  S
C2545      C2546   1.410       .  A
C2545      C2550   1.423       .  A
C2546      C2547   1.403       .  A
C2546      H2555   1.083       .  S
C2547      C2548   1.415       .  A
C2547      S2551   1.806       .  S
C2548      C2549   1.403       .  A
C2549      C2550   1.404       .  A
C2549      H2556   1.082       .  S
C2550      S2552   1.801       .  S
S2551      H2554   1.404       .  S
S2552      H2553   1.408       .  S
C2557      C2558   1.402       .  A
C2557      C2562   1.412       .  A
C2558      C2559   1.403       .  A
C2558      H2567   1.084       .  S
C2559      C2560   1.418       .  A
C2559      S2563   1.803       .  S
C2560      C2561   1.404       .  A
C2561      C2562   1.398       .  A
C2561      H2568   1.084       .  S
C2562      S2564   1.808       .  S
S2563      H2566   1.407       .  S
S2564      H2565   1.401       .  S
C2569      C2570   1.403       .  A
C2569      C2574   1.413       .  A
C2570      C2571   1.398       .  A
C2570      H2579   1.083       .  S
C2571      C2572   1.416       .  A
C2571      S2575   1.803       .  S
C2572      C2573   1.407       .  A
C2573      C2574   1.402       .  A
C2573      H2580   1.084       .  S
C2574      S2576   1.806       .  S
S2575      H2578   1.408       .  S
S2576      H2577   1.403       .  S
C2581      C2582   1.402       .  A
C2581      C2586   1.412       .  A
C2582      C2583   1.402       .  A
C2582      H2591   1.084       .  S
C2583      C2584   1.419       .  A
C2583      S2587   1.802       .  S
C2584      C2585   1.406       .  A
C2585      C2586   1.397       .  A
C2585      H2592   1.084       .  S
C2586      S2588   1.805       .  S
S2587      H2590   1.407       .  S
S2588      H2589   1.405       .  S
C2593      C2594   1.406       .  A
C2593      C2598   1.419       .  A
C2594      C2595   1.404       .  A
C2594      H2603   1.084       .  S
C2595      C2596   1.414       .  A
C2595      S2599   1.804       .  S
C2596      C2597   1.402       .  A
C2597      C2598   1.402       .  A
C2597      H2604   1.084       .  S
C2598      S2600   1.803       .  S
S2599      H3570   1.406       .  S
S2600      H2601   1.407       .  S
H2602      S3567   1.406       .  S
C2605      C2606   1.407       .  A
C2605      C2610   1.418       .  A
C2606      C2607   1.406       .  A
C2606      H2615   1.084       .  S
C2607      C2608   1.414       .  A
C2607      S2611   1.800       .  S
C2608      C2609   1.403       .  A
C2609      C2610   1.404       .  A
C2609      H2616   1.084       .  S
C2610      S2612   1.803       .  S
S2611      H2614   1.406       .  S
S2612      H2613   1.407       .  S
C2617      C2618   1.407       .  A
C2617      C2622   1.417       .  A
C2618      C2619   1.407       .  A
C2618      H2627   1.083       .  S
C2619      C2620   1.416       .  A
C2619      S2623   1.806       .  S
C2620      C2621   1.401       .  A
C2621      C2622   1.397       .  A
C2621      H2628   1.082       .  S
C2622      S2624   1.806       .  S
S2623      H2626   1.401       .  S
S2624      H2625   1.406       .  S
C2629      C2630   1.401       .  A
C2629      C2634   1.413       .  A
C2630      C2631   1.399       .  A
C2630      H2639   1.084       .  S
C2631      C2632   1.421       .  A
C2631      S2635   1.806       .  S
C2632      C2633   1.403       .  A
C2633      C2634   1.394       .  A
C2633      H2640   1.084       .  S
C2634      S2636   1.805       .  S
S2635      H2638   1.404       .  S
S2636      H2637   1.406       .  S
C2641      C2642   1.408       .  A
C2641      C2646   1.415       .  A
C2642      C2643   1.400       .  A
C2642      H2651   1.083       .  S
C2643      C2644   1.417       .  A
C2643      S2647   1.806       .  S
C2644      C2645   1.407       .  A
C2645      C2646   1.400       .  A
C2645      H2652   1.083       .  S
C2646      S3616   1.803       .  S
S2647      H2650   1.406       .  S
S2648      C3614   1.803   1_545  S
S2648      H2649   1.406       .  S
C2653      C2654   1.407       .  A
C2653      C2658   1.410       .  A
C2654      C2655   1.403       .  A
C2654      H2663   1.083       .  S
C2655      C2656   1.414       .  A
C2655      S2659   1.804       .  S
C2656      C2657   1.405       .  A
C2657      C2658   1.395       .  A
C2657      H2664   1.084       .  S
C2658      S2660   1.804       .  S
S2659      H2662   1.406       .  S
S2660      H2661   1.406       .  S
C2665      C2666   1.405       .  A
C2665      C2670   1.413       .  A
C2666      C2667   1.402       .  A
C2666      H2675   1.084       .  S
C2667      C2668   1.421       .  A
C2667      S2671   1.805       .  S
C2668      C2669   1.409       .  A
C2669      C2670   1.402       .  A
C2670      S2672   1.801       .  S
S2671      H2674   1.406       .  S
S2672      H2673   1.407       .  S
C2677      C2678   1.407       .  A
C2677      C2682   1.416       .  A
C2678      C2679   1.400       .  A
C2678      H2687   1.083       .  S
C2679      C2680   1.416       .  A
C2679      S3651   1.801   1_545  S
C2680      C2681   1.407       .  A
C2681      C2682   1.398       .  A
C2681      H2688   1.083       .  S
C2682      S2684   1.806       .  S
S2683      C3647   1.801       .  S
S2683      H2686   1.406       .  S
S2684      H2685   1.407       .  S
C2689      C2690   1.406       .  A
C2689      C2694   1.411       .  A
C2690      C2691   1.399       .  A
C2690      H2699   1.084       .  S
C2691      C2692   1.412       .  A
C2691      S2695   1.803   1_545  S
C2692      C2693   1.408       .  A
C2693      C2694   1.399       .  A
C2693      H2700   1.084       .  S
C2694      S2696   1.805       .  S
S2695      H3666   1.406       .  S
S2696      H2697   1.405       .  S
H2698      S3663   1.406       .  S
C2701      C2702   1.406       .  A
C2701      C2706   1.413       .  A
C2702      C2703   1.408       .  A
C2702      H2711   1.083       .  S
C2703      C2704   1.420       .  A
C2703      S2707   1.803       .  S
C2704      C2705   1.401       .  A
C2705      C2706   1.392       .  A
C2706      S2708   1.807       .  S
S2707      H2710   1.407       .  S
S2708      H2709   1.406       .  S
C2713      C2714   1.407       .  A
C2713      C2718   1.410       .  A
C2714      C2715   1.402       .  A
C2714      H2723   1.084       .  S
C2715      C2716   1.413       .  A
C2715      S2719   1.803       .  S
C2716      C2717   1.406       .  A
C2717      C2718   1.398       .  A
C2717      H2724   1.084       .  S
C2718      S2720   1.804       .  S
S2719      H2722   1.406       .  S
S2720      H2721   1.406       .  S
C2725      C2726   1.405       .  A
C2725      C2730   1.415       .  A
C2726      C2727   1.404       .  A
C2726      H2735   1.084       .  S
C2727      C2728   1.417       .  A
C2727      S2731   1.803       .  S
C2728      C2729   1.399       .  A
C2729      C2730   1.397       .  A
C2729      H2736   1.077       .  S
C2730      S2732   1.811       .  S
S2731      H2734   1.403       .  S
S2732      H2733   1.406       .  S
C2737      C2738   1.408       .  A
C2737      C2742   1.420       .  A
C2738      C2739   1.396       .  A
C2738      H2747   1.084       .  S
C2739      C2740   1.414       .  A
C2739      S2743   1.812       .  S
C2740      C2741   1.404       .  A
C2741      C2742   1.406       .  A
C2741      H2748   1.084       .  S
C2742      S2744   1.805       .  S
S2743      H2746   1.402       .  S
S2744      H2745   1.406       .  S
C2749      C2750   1.409       .  A
C2749      C2754   1.428       .  A
C2750      C2751   1.398       .  A
C2750      H2759   1.078       .  S
C2751      C2752   1.413       .  A
C2751      S2755   1.805       .  S
C2752      C2753   1.401       .  A
C2753      C2754   1.402       .  A
C2753      H2760   1.081       .  S
C2754      S2756   1.806       .  S
S2755      H2758   1.407       .  S
S2756      H2757   1.407       .  S
C2761      C2762   1.402       .  A
C2761      C2766   1.414       .  A
C2762      C2763   1.402       .  A
C2762      H2771   1.084       .  S
C2763      C2764   1.419       .  A
C2763      S2767   1.808       .  S
C2764      C2765   1.404       .  A
C2765      C2766   1.404       .  A
C2765      H2772   1.084       .  S
C2766      S2768   1.803       .  S
S2767      H2770   1.400       .  S
S2768      H2769   1.406       .  S
C2773      C2774   1.403       .  A
C2773      C2778   1.412       .  A
C2774      C2775   1.401       .  A
C2774      H2783   1.084       .  S
C2775      C2776   1.418       .  A
C2775      S3747   1.808       .  S
C2776      C2777   1.404       .  A
C2777      C2778   1.400       .  A
C2777      H2784   1.084       .  S
C2778      S2780   1.803       .  S
S2779      C3743   1.808       .  S
S2779      H2782   1.400       .  S
S2780      H2781   1.407       .  S
C2785      C2786   1.405       .  A
C2785      C2790   1.414       .  A
C2786      C2787   1.403       .  A
C2786      H2795   1.084       .  S
C2787      C2788   1.414       .  A
C2787      S2791   1.804       .  S
C2788      C2789   1.404       .  A
C2789      C2790   1.400       .  A
C2789      H2796   1.084       .  S
C2790      S2792   1.799       .  S
S2791      H2794   1.405       .  S
S2792      H2793   1.407       .  S
C2797      C2798   1.403       .  A
C2797      C2802   1.414       .  A
C2798      C2799   1.403       .  A
C2798      H2807   1.082       .  S
C2799      C2800   1.420       .  A
C2799      S2803   1.800       .  S
C2800      C2801   1.410       .  A
C2801      C2802   1.404       .  A
C2801      H2808   1.083       .  S
C2802      S2804   1.806       .  S
S2803      H2806   1.408       .  S
S2804      H2805   1.404       .  S
C2809      C2810   1.403       .  A
C2809      C2814   1.415       .  A
C2810      C2811   1.401       .  A
C2810      H2819   1.084       .  S
C2811      C2812   1.415       .  A
C2811      S2815   1.805       .  S
C2812      C2813   1.402       .  A
C2813      C2814   1.401       .  A
C2813      H2820   1.083       .  S
C2814      S2816   1.803       .  S
S2815      H2818   1.405       .  S
S2816      H2817   1.407       .  S
C2821      C2822   1.405       .  A
C2821      C2826   1.416       .  A
C2822      C2823   1.399       .  A
C2822      H2831   1.082       .  S
C2823      C2824   1.412       .  A
C2823      S2827   1.804       .  S
C2824      C2825   1.404       .  A
C2825      C2826   1.402       .  A
C2825      H2832   1.084       .  S
C2826      S2828   1.805       .  S
S2827      H2830   1.407       .  S
S2828      H2829   1.405       .  S
C2833      C2834   1.398       .  A
C2833      C2838   1.409       .  A
C2834      C2835   1.399       .  A
C2834      H2843   1.083       .  S
C2835      C2836   1.419       .  A
C2835      S2839   1.803       .  S
C2836      C2837   1.406       .  A
C2837      C2838   1.403       .  A
C2837      H2844   1.083       .  S
C2838      S3808   1.807       .  S
S2839      H2842   1.408       .  S
S2840      C3806   1.807       .  S
S2840      H2841   1.407       .  S
C2845      C2846   1.403       .  A
C2845      C2850   1.413       .  A
C2846      C2847   1.400       .  A
C2846      H2855   1.082       .  S
C2847      C2848   1.418       .  A
C2847      S2851   1.800       .  S
C2848      C2849   1.409       .  A
C2849      C2850   1.401       .  A
C2849      H2856   1.084       .  S
C2850      S2852   1.805       .  S
S2851      H2854   1.408       .  S
S2852      H2853   1.406       .  S
C2857      C2858   1.402       .  A
C2857      C2862   1.414       .  A
C2858      C2859   1.405       .  A
C2858      H2867   1.083       .  S
C2859      C2860   1.416       .  A
C2859      S2863   1.809       .  S
C2860      C2861   1.407       .  A
C2861      C2862   1.404       .  A
C2861      H2868   1.084       .  S
C2862      S2864   1.805       .  S
S2863      H2866   1.406       .  S
C2869      C2870   1.409       .  A
C2869      C2874   1.422       .  A
C2870      C2871   1.402       .  A
C2870      H2879   1.083       .  S
C2871      C2872   1.414       .  A
C2871      S2875   1.805       .  S
C2872      C2873   1.404       .  A
C2873      C2874   1.406       .  A
C2873      H2880   1.083       .  S
C2874      S2876   1.800       .  S
S2875      H2878   1.406       .  S
S2876      H2877   1.408       .  S
C2881      C2882   1.404       .  A
C2881      C2886   1.417       .  A
C2882      C2883   1.398       .  A
C2882      H2891   1.084       .  S
C2883      C2884   1.413       .  A
C2883      S2887   1.801       .  S
C2884      C2885   1.401       .  A
C2885      C2886   1.399       .  A
C2885      H2892   1.084       .  S
C2886      S2888   1.803       .  S
S2887      H2890   1.406       .  S
S2888      H2889   1.407       .  S
C2893      C2894   1.401       .  A
C2893      C2898   1.414       .  A
C2894      C2895   1.403       .  A
C2894      H2903   1.083       .  S
C2895      C2896   1.423       .  A
C2895      S2899   1.802       .  S
C2896      C2897   1.409       .  A
C2897      C2898   1.404       .  A
C2897      H2904   1.083       .  S
C2898      S2900   1.805       .  S
S2899      H2902   1.408       .  S
S2900      H2901   1.406       .  S
Zn2905     O2909   1.954   1_554  S
Zn2905     O2910   2.038       .  S
Zn2905     O2914   2.020       .  S
Zn2905     O2921   2.011       .  S
Zn2906     O2909   1.957       .  S
Zn2906     O2911   2.006       .  S
Zn2906     O2913   2.036   1_556  S
Zn2906     O2917   2.028       .  S
Zn2907     O2909   1.961       .  S
Zn2907     O2912   2.029   1_556  S
Zn2907     O2915   2.032       .  S
Zn2907     O2918   2.024       .  S
Zn2908     O2909   1.973       .  S
Zn2908     O2916   2.054       .  S
Zn2908     O2919   2.039       .  S
Zn2908     O2920   2.026   1_556  S
O2910      C2922   1.276       .  A
O2911      C2923   1.273       .  A
O2912      C2924   1.274       .  A
O2913      C2922   1.273       .  A
O2914      C2924   1.274       .  A
O2915      C2923   1.277       .  A
O2916      C2925   1.279       .  A
O2917      C2926   1.276       .  A
O2918      C2925   1.273       .  A
O2919      C2926   1.276       .  A
O2920      C2927   1.276       .  A
O2921      C2927   1.274       .  A
C2922      C3837   1.503       .  S
C2923      C3804   1.485       .  S
C2924      C3816   1.493       .  S
C2925      C3864   1.501       .  S
C2926      C3828   1.490       .  S
C2927      C3849   1.483       .  S
Zn2928     O2932   1.962       .  S
Zn2928     O2933   2.033       .  S
Zn2928     O2937   2.040       .  S
Zn2928     O2944   2.049       .  S
Zn2929     O2932   1.967       .  S
Zn2929     O2934   2.035       .  S
Zn2929     O2936   2.018       .  S
Zn2929     O2940   2.037       .  S
Zn2930     O2932   1.958       .  S
Zn2930     O2935   2.029       .  S
Zn2930     O2938   2.038       .  S
Zn2930     O2941   2.029       .  S
Zn2931     O2932   1.959       .  S
Zn2931     O2939   2.017       .  S
Zn2931     O2942   2.019       .  S
Zn2931     O2943   2.013       .  S
O2933      C2945   1.277       .  A
O2934      C2946   1.276       .  A
O2935      C2947   1.274       .  A
O2936      C2945   1.274       .  A
O2937      C2947   1.276       .  A
O2938      C2946   1.275       .  A
O2939      C2948   1.274       .  A
O2940      C2949   1.275       .  A
O2941      C2948   1.276       .  A
O2942      C2949   1.274       .  A
O2943      C2950   1.271       .  A
O2944      C2950   1.277       .  A
C2945      C3792   1.478       .  S
C2946      C3768   1.500       .  S
C2947      C3729   1.482       .  S
C2948      C3741   1.479       .  S
C2949      C3777   1.481       .  S
C2950      C3753   1.485       .  S
N2951      C2956   1.350       .  A
N2951      H2983   1.039       .  S
N2952      C2959   1.351       .  A
N2952      C2960   1.353       .  A
N2953      C2958   1.356       .  A
N2953      H2984   1.039       .  S
N2954      C2961   1.356       .  A
N2954      C2962   1.353       .  A
C2955      C2963   1.386       .  A
C2955      C2971   1.410       .  A
C2956      C2972   1.410       .  A
C2956      C2964   1.387       .  A
C2957      C2965   1.384       .  A
C2957      C2974   1.422       .  A
C2958      C2973   1.424       .  A
C2958      C2966   1.390       .  A
C2959      C2971   1.414       .  A
C2959      C2967   1.381       .  A
C2960      C2974   1.416       .  A
C2960      C2968   1.386       .  A
C2961      C2969   1.385       .  A
C2961      C2972   1.416       .  A
C2962      C2970   1.389       .  A
C2962      C2973   1.422       .  A
C2963      H2975   1.082       .  S
C2964      H2976   1.082       .  S
C2965      H2977   1.082       .  S
C2966      H2978   1.076       .  S
C2967      C2968   1.373       .  A
C2967      H2979   1.079       .  S
C2968      H2980   1.082       .  S
C2969      C2970   1.368       .  A
C2969      H2981   1.080       .  S
C2970      H2982   1.081       .  S
C2971      C3681   1.490       .  S
C2972      C3693   1.496       .  S
C2973      C3720   1.502       .  S
C2974      C3705   1.509       .  S
N2985      C2990   1.352       .  A
N2985      C2989   1.354       .  A
N2985      H3017   1.043       .  S
N2986      C2993   1.351       .  A
N2986      C2994   1.350       .  A
N2987      C2992   1.355       .  A
N2987      C2991   1.356       .  A
N2987      H3018   1.037       .  S
N2988      C2995   1.352       .  A
N2988      C2996   1.350       .  A
C2989      C2997   1.388       .  A
C2989      C3005   1.417       .  A
C2990      C3006   1.414       .  A
C2990      C2998   1.386       .  A
C2991      C2999   1.388       .  A
C2991      C3008   1.424       .  A
C2992      C3007   1.419       .  A
C2992      C3000   1.387       .  A
C2993      C3005   1.418       .  A
C2993      C3001   1.386       .  A
C2994      C3008   1.415       .  A
C2994      C3002   1.386       .  A
C2995      C3003   1.386       .  A
C2995      C3006   1.416       .  A
C2996      C3004   1.386       .  A
C2996      C3007   1.414       .  A
C2997      C2998   1.376       .  A
C2997      H3009   1.082       .  S
C2998      H3010   1.082       .  S
C2999      C3000   1.371       .  A
C2999      H3011   1.082       .  S
C3000      H3012   1.082       .  S
C3001      C3002   1.377       .  A
C3001      H3013   1.082       .  S
C3002      H3014   1.080       .  S
C3003      C3004   1.373       .  A
C3003      H3015   1.081       .  S
C3004      H3016   1.080       .  S
C3005      C3633   1.505       .  S
C3006      C3645   1.501       .  S
C3007      C3657   1.490       .  S
C3008      C3669   1.497       .  S
N3019      C3023   1.356       .  A
N3019      H3051   1.038       .  S
N3020      C3027   1.355       .  A
N3020      C3028   1.351       .  A
N3021      C3025   1.355   1_455  A
N3021      H3052   1.040       .  S
N3022      C3029   1.349       .  A
N3022      C3030   1.352       .  A
C3023      C3031   1.389       .  A
C3023      C3039   1.421       .  A
C3024      C3040   1.411       .  A
C3024      C3032   1.384       .  A
C3025      C3033   1.387       .  A
C3025      C3042   1.416       .  A
C3026      C3041   1.421       .  A
C3026      C3034   1.385       .  A
C3027      C3039   1.422       .  A
C3027      C3035   1.386       .  A
C3028      C3042   1.421       .  A
C3028      C3036   1.386       .  A
C3029      C3037   1.386       .  A
C3029      C3040   1.414       .  A
C3030      C3038   1.386       .  A
C3030      C3041   1.416       .  A
C3031      H3043   1.082       .  S
C3032      H3044   1.082       .  S
C3033      H3045   1.080       .  S
C3034      H3046   1.079       .  S
C3035      C3036   1.375       .  A
C3035      H3047   1.081       .  S
C3036      H3048   1.082       .  S
C3037      C3038   1.369       .  A
C3037      H3049   1.080       .  S
C3038      H3050   1.081       .  S
C3039      C3585   1.503       .  S
C3040      C3597   1.485       .  S
C3041      C3612   1.505       .  S
C3042      C3621   1.491       .  S
C3053      C3732   1.487       .  S
C3053      C3058   1.405       .  A
C3054      C3576   1.491       .  S
C3054      C3055   1.409       .  A
C3055      C3056   1.410       .  A
C3055      H3060   1.084       .  S
C3056      C3672   1.502       .  S
C3057      C3708   1.486       .  S
C3057      C3058   1.402       .  A
C3058      H3059   1.085       .  S
C3061      C3756   1.484       .  S
C3061      C3066   1.399       .  A
C3062      C3564   1.487       .  S
C3062      C3063   1.407       .  A
C3063      C3064   1.411       .  A
C3063      H3068   1.084       .  S
C3064      C3609   1.501       .  S
C3065      C3660   1.490       .  S
C3065      C3066   1.401       .  A
C3066      H3067   1.085       .  S
C3069      C3549   1.482       .  S
C3069      C3070   1.415       .  A
C3069      C3074   1.403       .  A
C3070      C3861   1.491       .  S
C3070      C3071   1.409       .  A
C3071      C3072   1.407       .  A
C3071      H3076   1.084       .  S
C3072      C3588   1.490       .  S
C3072      C3073   1.420       .  A
C3073      C3696   1.489       .  S
C3073      C3074   1.399       .  A
C3074      H3075   1.085       .  S
C3077      C3789   1.488       .  S
C3077      C3078   1.409       .  A
C3077      C3082   1.400       .  A
C3078      C3537   1.484       .  S
C3078      C3079   1.402       .  A
C3079      C3080   1.408       .  A
C3079      H3084   1.082       .  S
C3080      C3717   1.515       .  S
C3080      C3081   1.432       .  A
C3081      C3624   1.487       .  S
C3081      C3082   1.407       .  A
C3082      H3083   1.085       .  S
C3085      C3525   1.478       .  S
C3085      C3090   1.399       .  A
C3086      C3801   1.476       .  S
C3086      C3087   1.400       .  A
C3087      C3088   1.406       .  A
C3087      H3092   1.084       .  S
C3088      C3648   1.501       .  S
C3089      C3600   1.487       .  S
C3089      C3090   1.404       .  A
C3090      H3091   1.084       .  S
C3093      C3825   1.485       .  S
C3093      C3098   1.401       .  A
C3094      C3516   1.495       .  S
C3094      C3095   1.410       .  A
C3095      C3096   1.413       .  A
C3095      H3100   1.083       .  S
C3096      C3636   1.507       .  S
C3097      C3684   1.487       .  S
C3097      C3098   1.403       .  A
C3098      H3099   1.085       .  S
Zn3101     O3105   1.957       .  S
Zn3101     O3106   2.021       .  S
Zn3101     O3110   2.020       .  S
Zn3101     O3117   2.037       .  S
Zn3102     O3105   1.975       .  S
Zn3102     O3107   2.041       .  S
Zn3102     O3109   2.051       .  S
Zn3102     O3113   2.043       .  S
Zn3103     O3105   1.970       .  S
Zn3103     O3108   2.026       .  S
Zn3103     O3111   2.054       .  S
Zn3103     O3114   2.037       .  S
Zn3104     O3105   1.964       .  S
Zn3104     O3112   2.026       .  S
Zn3104     O3115   1.996       .  S
Zn3104     O3116   2.042       .  S
O3106      C3118   1.274       .  A
O3107      C3119   1.276       .  A
O3108      C3120   1.275       .  A
O3109      C3118   1.278       .  A
O3110      C3120   1.275       .  A
O3111      C3119   1.278       .  A
O3112      C3121   1.275       .  A
O3113      C3122   1.278       .  A
O3114      C3121   1.276       .  A
O3115      C3122   1.272       .  A
O3116      C3123   1.275       .  A
O3117      C3123   1.275       .  A
C3118      C3561   1.492       .  S
C3119      C3504   1.498       .  S
C3120      C3540   1.486       .  S
C3121      C3477   1.493       .  S
C3122      C3489   1.484       .  S
C3123      C3573   1.495       .  S
Zn3124     O3128   1.956   1_556  S
Zn3124     O3129   2.022       .  S
Zn3124     O3133   2.026       .  S
Zn3124     O3140   2.041       .  S
Zn3125     O3128   1.964       .  S
Zn3125     O3130   2.047       .  S
Zn3125     O3132   2.016   1_554  S
Zn3125     O3136   2.006       .  S
Zn3126     O3128   1.960       .  S
Zn3126     O3131   2.020   1_554  S
Zn3126     O3134   2.024       .  S
Zn3126     O3137   2.006       .  S
Zn3127     O3128   1.970       .  S
Zn3127     O3135   2.025       .  S
Zn3127     O3138   2.040       .  S
Zn3127     O3139   2.035   1_554  S
O3129      C3141   1.276       .  A
O3130      C3142   1.277       .  A
O3131      C3143   1.273       .  A
O3132      C3141   1.273       .  A
O3133      C3143   1.276       .  A
O3134      C3142   1.273       .  A
O3135      C3144   1.274       .  A
O3136      C3145   1.272       .  A
O3137      C3144   1.275       .  A
O3138      C3145   1.277       .  A
O3139      C3146   1.273       .  A
O3140      C3146   1.277       .  A
C3141      C3552   1.487       .  S
C3142      C3468   1.498       .  S
C3143      C3528   1.485       .  S
C3144      C3453   1.488       .  S
C3145      C3441   1.489       .  S
C3146      C3513   1.505       .  S
N3147      C3152   1.357       .  A
N3147      H3179   1.041       .  S
N3148      C3155   1.346       .  A
N3148      C3156   1.349       .  A
N3149      C3154   1.350       .  A
N3149      H3180   1.041       .  S
N3150      C3157   1.353       .  A
N3150      C3158   1.352       .  A
C3151      C3159   1.385       .  A
C3151      C3167   1.423       .  A
C3152      C3168   1.426       .  A
C3152      C3160   1.389       .  A
C3153      C3161   1.386       .  A
C3153      C3170   1.416       .  A
C3154      C3169   1.410       .  A
C3154      C3162   1.387       .  A
C3155      C3167   1.411       .  A
C3155      C3163   1.387       .  A
C3156      C3170   1.409       .  A
C3156      C3164   1.384       .  A
C3157      C3165   1.387       .  A
C3157      C3168   1.416       .  A
C3158      C3166   1.385       .  A
C3158      C3169   1.415       .  A
C3159      H3171   1.081       .  S
C3160      H3172   1.080       .  S
C3161      H3173   1.079       .  S
C3162      H3174   1.080       .  S
C3163      C3164   1.377       .  A
C3163      H3175   1.082       .  S
C3164      H3176   1.082       .  S
C3165      C3166   1.373       .  A
C3165      H3177   1.081       .  S
C3166      H3178   1.081       .  S
C3167      C3396   1.502       .  S
C3168      C3417   1.501       .  S
C3169      C3432   1.486       .  S
C3170      C3405   1.496       .  S
N3181      C3186   1.354       .  A
N3181      C3185   1.355       .  A
N3181      H3213   1.035       .  S
N3182      C3189   1.351       .  A
N3182      C3190   1.351       .  A
N3183      C3188   1.357       .  A
N3183      C3187   1.356       .  A
N3183      H3214   1.040       .  S
N3184      C3191   1.355       .  A
N3184      C3192   1.354       .  A
C3185      C3193   1.387       .  A
C3185      C3201   1.419       .  A
C3186      C3202   1.420       .  A
C3186      C3194   1.388       .  A
C3187      C3195   1.385       .  A
C3187      C3204   1.422       .  A
C3188      C3203   1.420       .  A
C3188      C3196   1.387       .  A
C3189      C3201   1.416       .  A
C3189      C3197   1.387       .  A
C3190      C3204   1.415       .  A
C3190      C3198   1.386       .  A
C3191      C3199   1.386       .  A
C3191      C3202   1.420       .  A
C3192      C3200   1.385       .  A
C3192      C3203   1.420       .  A
C3193      C3194   1.369       .  A
C3193      H3205   1.081       .  S
C3194      H3206   1.081       .  S
C3195      C3196   1.371       .  A
C3195      H3207   1.078       .  S
C3196      H3208   1.080       .  S
C3197      C3198   1.369       .  A
C3197      H3209   1.080       .  S
C3198      H3210   1.082       .  S
C3199      C3200   1.374       .  A
C3199      H3211   1.082       .  S
C3200      H3212   1.081       .  S
C3201      C3348   1.491       .  S
C3202      C3369   1.494       .  S
C3203      C3384   1.500       .  S
C3204      C3357   1.502       .  S
C3215      C3744   1.484       .  S
C3215      C3220   1.406       .  A
C3216      C3501   1.496       .  S
C3216      C3217   1.406       .  A
C3217      C3218   1.410       .  A
C3217      H3222   1.084       .  S
C3218      C3372   1.493       .  S
C3219      C3393   1.499       .  S
C3219      C3220   1.404       .  A
C3220      H3221   1.084       .  S
N3223      C3227   1.360       .  A
N3223      H3255   1.037       .  S
N3224      C3231   1.353       .  A
N3224      C3232   1.356       .  A
N3225      C3229   1.352       .  A
N3225      H3256   1.039       .  S
N3226      C3233   1.351       .  A
N3226      C3234   1.351       .  A
C3227      C3235   1.390       .  A
C3227      C3243   1.434       .  A
C3228      C3244   1.429       .  A
C3228      C3236   1.386       .  A
C3229      C3237   1.386       .  A
C3229      C3246   1.415       .  A
C3230      C3245   1.417       .  A
C3230      C3238   1.389       .  A
C3231      C3243   1.427       .  A
C3231      C3239   1.391       .  A
C3232      C3246   1.416       .  A
C3232      C3240   1.379       .  A
C3233      C3241   1.384       .  A
C3233      C3244   1.413       .  A
C3234      C3242   1.388       .  A
C3234      C3245   1.417       .  A
C3235      H3247   1.080       .  S
C3236      H3248   1.080       .  S
C3237      H3249   1.082       .  S
C3238      H3250   1.080       .  S
C3239      C3240   1.368       .  A
C3239      H3251   1.076       .  S
C3240      H3252   1.082       .  S
C3241      C3242   1.372       .  A
C3241      H3253   1.082       .  S
C3242      H3254   1.080       .  S
C3243      C3321   1.508       .  S
C3244      C3300   1.511       .  S
C3245      C3312   1.491       .  S
C3246      C3336   1.502       .  S
C3257      C3840   1.496       .  S
C3257      C3262   1.407       .  A
C3258      C3465   1.491       .  S
C3258      C3259   1.408       .  A
C3259      C3260   1.407       .  A
C3259      H3264   1.084       .  S
C3260      C3381   1.500       .  S
C3261      C3408   1.496       .  S
C3261      C3262   1.405       .  A
C3262      H3263   1.083       .  S
C3265      C3480   1.484       .  S
C3265      C3266   1.411       .  A
C3265      C3270   1.408       .  A
C3266      C3780   1.484       .  S
C3266      C3267   1.399       .  A
C3267      C3268   1.401       .  A
C3267      H3272   1.085       .  S
C3268      C3324   1.485       .  S
C3268      C3269   1.431       .  A
C3269      C3420   1.512       .  S
C3269      C3270   1.411       .  A
C3270      H3271   1.084       .  S
C3273      C3813   1.490       .  S
C3273      C3274   1.414       .  A
C3273      C3278   1.407       .  A
C3274      C3444   1.486       .  S
C3274      C3275   1.401       .  A
C3275      C3276   1.403       .  A
C3275      H3280   1.084       .  S
C3276      C3429   1.489       .  S
C3276      C3277   1.424       .  A
C3277      C3333   1.501       .  S
C3277      C3278   1.406       .  A
C3278      H3279   1.083       .  S
C3281      C3765   1.493       .  S
C3281      C3286   1.400       .  A
C3282      C3492   1.476       .  S
C3282      C3283   1.403       .  A
C3283      C3284   1.405       .  A
C3283      H3288   1.083       .  S
C3284      C3297   1.508       .  S
C3285      C3345   1.489       .  S
C3285      C3286   1.407       .  A
C3286      H3287   1.084       .  S
C3289      C3852   1.481       .  S
C3289      C3294   1.402       .  A
C3290      C3456   1.484       .  S
C3290      C3291   1.400       .  A
C3291      C3292   1.401       .  A
C3291      H3296   1.084       .  S
C3292      C3309   1.491       .  S
C3293      C3360   1.497       .  S
C3293      C3294   1.405       .  A
C3294      H3295   1.084       .  S
C3297      C3298   1.407       .  A
C3297      C3302   1.424       .  A
C3298      C3299   1.402       .  A
C3298      H3307   1.082       .  S
C3299      C3300   1.421       .  A
C3299      S3303   1.805       .  S
C3300      C3301   1.405       .  A
C3301      C3302   1.401       .  A
C3301      H3308   1.084       .  S
C3302      S3304   1.806       .  S
S3303      H3306   1.406       .  S
S3304      H3305   1.407       .  S
C3309      C3310   1.407       .  A
C3309      C3314   1.411       .  A
C3310      C3311   1.396       .  A
C3310      H3319   1.083       .  S
C3311      C3312   1.413       .  A
C3311      S3315   1.805       .  S
C3312      C3313   1.406       .  A
C3313      C3314   1.398       .  A
C3313      H3320   1.084       .  S
S3315      H3318   1.406       .  S
S3316      H3317   1.406       .  S
C3321      C3322   1.410       .  A
C3321      C3326   1.421       .  A
C3322      C3323   1.394       .  A
C3322      H3331   1.082       .  S
C3323      C3324   1.399       .  A
C3323      S3327   1.811       .  S
C3324      C3325   1.407       .  A
C3325      C3326   1.407       .  A
C3325      H3332   1.083       .  S
C3326      S3328   1.806       .  S
S3327      H3330   1.407       .  S
S3328      H3329   1.406       .  S
C3333      C3334   1.409       .  A
C3333      C3338   1.418       .  A
C3334      C3335   1.403       .  A
C3334      H3343   1.083       .  S
C3335      C3336   1.416       .  A
C3335      S3339   1.802       .  S
C3336      C3337   1.405       .  A
C3337      C3338   1.397       .  A
C3337      H3344   1.084       .  S
C3338      S3340   1.804       .  S
S3339      H3342   1.405       .  S
S3340      H3341   1.407       .  S
C3345      C3346   1.406       .  A
C3345      C3350   1.414       .  A
C3346      C3347   1.397       .  A
C3346      H3355   1.084       .  S
C3347      C3348   1.412       .  A
C3347      S3351   1.805       .  S
C3348      C3349   1.406       .  A
C3349      C3350   1.398       .  A
C3349      H3356   1.084       .  S
S3351      H3354   1.405       .  S
S3352      H3353   1.406       .  S
C3357      C3358   1.408       .  A
C3357      C3362   1.416       .  A
C3358      C3359   1.397       .  A
C3358      H3367   1.083       .  S
C3359      C3360   1.413       .  A
C3360      C3361   1.408       .  A
C3361      C3362   1.400       .  A
C3361      H3368   1.083       .  S
C3362      S3364   1.805       .  S
S3363      H3366   1.406       .  S
S3364      H3365   1.406       .  S
C3369      C3370   1.405       .  A
C3369      C3374   1.414       .  A
C3370      C3371   1.399       .  A
C3370      H3379   1.084       .  S
C3371      C3372   1.415       .  A
C3372      C3373   1.406       .  A
C3373      C3374   1.400       .  A
C3373      H3380   1.084       .  S
C3374      S3376   1.804       .  S
S3375      H3378   1.406       .  S
S3376      H3377   1.405       .  S
C3381      C3382   1.406       .  A
C3381      C3386   1.416       .  A
C3382      C3383   1.402       .  A
C3382      H3391   1.084       .  S
C3383      C3384   1.414       .  A
C3383      S3387   1.804       .  S
C3384      C3385   1.406       .  A
C3385      C3386   1.403       .  A
C3385      H3392   1.084       .  S
S3387      H3390   1.406       .  S
S3388      H3389   1.406       .  S
C3393      C3394   1.409       .  A
C3393      C3398   1.414       .  A
C3394      C3395   1.402       .  A
C3394      H3403   1.083       .  S
C3395      C3396   1.415       .  A
C3395      S3399   1.805       .  S
C3396      C3397   1.408       .  A
C3397      C3398   1.398       .  A
C3397      H3404   1.084       .  S
S3399      H3402   1.406       .  S
S3400      H3401   1.406       .  S
C3405      C3406   1.405       .  A
C3405      C3410   1.415       .  A
C3406      C3407   1.400       .  A
C3406      H3415   1.084       .  S
C3407      C3408   1.420       .  A
C3407      S3411   1.806       .  S
C3408      C3409   1.406       .  A
C3409      C3410   1.399       .  A
S3411      H3414   1.405       .  S
C3417      C3418   1.408       .  A
C3417      C3422   1.408       .  A
C3418      C3419   1.409       .  A
C3418      H3427   1.083       .  S
C3419      C3420   1.421       .  A
C3419      S3423   1.804       .  S
C3420      C3421   1.404       .  A
C3421      C3422   1.394       .  A
C3421      H3428   1.061       .  S
C3422      S3424   1.807       .  S
S3423      H3426   1.407       .  S
S3424      H3425   1.406       .  S
C3429      C3430   1.407       .  A
C3429      C3434   1.417       .  A
C3430      C3431   1.399       .  A
C3430      H3439   1.084       .  S
C3431      C3432   1.414       .  A
C3431      S3435   1.805       .  S
C3432      C3433   1.400       .  A
C3433      C3434   1.395       .  A
C3433      H3440   1.084       .  S
C3434      S3436   1.805       .  S
S3435      H3438   1.405       .  S
S3436      H3437   1.406       .  S
C3441      C3442   1.406       .  A
C3441      C3446   1.419       .  A
C3442      C3443   1.402       .  A
C3442      H3451   1.084       .  S
C3443      C3444   1.414       .  A
C3443      S3447   1.806       .  S
C3444      C3445   1.402       .  A
C3445      C3446   1.400       .  A
C3445      H3452   1.084       .  S
C3446      S3448   1.803       .  S
S3447      H3450   1.404       .  S
S3448      H3449   1.408       .  S
C3453      C3454   1.407       .  A
C3453      C3458   1.417       .  A
C3454      C3455   1.397       .  A
C3454      H3463   1.084       .  S
C3455      C3456   1.416       .  A
C3455      S3459   1.809       .  S
C3456      C3457   1.404       .  A
C3457      C3458   1.400       .  A
C3457      H3464   1.084       .  S
C3458      S3460   1.802       .  S
S3459      H3462   1.400       .  S
S3460      H3461   1.408       .  S
C3465      C3466   1.402       .  A
C3465      C3470   1.415       .  A
C3466      C3467   1.403       .  A
C3466      H3475   1.084       .  S
C3467      C3468   1.421       .  A
C3467      S3471   1.803       .  S
C3468      C3469   1.408       .  A
C3469      C3470   1.404       .  A
C3469      H3476   1.084       .  S
C3470      S3472   1.805       .  S
S3471      H3474   1.408       .  S
S3472      H3473   1.405       .  S
C3477      C3478   1.408       .  A
C3477      C3482   1.419       .  A
C3478      C3479   1.402       .  A
C3478      H3487   1.084       .  S
C3479      C3480   1.412       .  A
C3479      S3483   1.807       .  S
C3480      C3481   1.402       .  A
C3481      C3482   1.402       .  A
C3481      H3488   1.083       .  S
C3482      S3484   1.802       .  S
S3483      H3486   1.403       .  S
S3484      H3485   1.408       .  S
C3489      C3490   1.409       .  A
C3489      C3494   1.413       .  A
C3490      C3491   1.399       .  A
C3490      H3499   1.084       .  S
C3491      C3492   1.409       .  A
C3491      S3495   1.808       .  S
C3492      C3493   1.404       .  A
C3493      C3494   1.402       .  A
C3493      H3500   1.082       .  S
C3494      S3496   1.808       .  S
S3496      H3497   1.407       .  S
C3501      C3502   1.405       .  A
C3501      C3506   1.414       .  A
C3502      C3503   1.407       .  A
C3502      H3511   1.084       .  S
C3503      C3504   1.418       .  A
C3503      S3507   1.802       .  S
C3504      C3505   1.407       .  A
C3505      C3506   1.404       .  A
C3505      H3512   1.084       .  S
C3506      S3508   1.801       .  S
S3507      H3510   1.407       .  S
S3508      H3509   1.406       .  S
C3513      C3514   1.410       .  A
C3513      C3518   1.423       .  A
C3514      C3515   1.403       .  A
C3514      H3523   1.083       .  S
C3515      C3516   1.415       .  A
C3515      S3519   1.806       .  S
C3516      C3517   1.403       .  A
C3517      C3518   1.404       .  A
C3517      H3524   1.082       .  S
C3518      S3520   1.801       .  S
S3519      H3522   1.404       .  S
S3520      H3521   1.408       .  S
C3525      C3526   1.402       .  A
C3525      C3530   1.412       .  A
C3526      C3527   1.403       .  A
C3526      H3535   1.084       .  S
C3527      C3528   1.418       .  A
C3527      S3531   1.803       .  S
C3528      C3529   1.404       .  A
C3529      C3530   1.398       .  A
C3529      H3536   1.084       .  S
C3530      S3532   1.808       .  S
S3531      H3534   1.407       .  S
S3532      H3533   1.401       .  S
C3537      C3538   1.403       .  A
C3537      C3542   1.413       .  A
C3538      C3539   1.398       .  A
C3538      H3547   1.083       .  S
C3539      C3540   1.416       .  A
C3539      S3543   1.803       .  S
C3540      C3541   1.407       .  A
C3541      C3542   1.402       .  A
C3541      H3548   1.084       .  S
C3542      S3544   1.806       .  S
S3543      H3546   1.408       .  S
S3544      H3545   1.403       .  S
C3549      C3550   1.402       .  A
C3549      C3554   1.412       .  A
C3550      C3551   1.402       .  A
C3550      H3559   1.084       .  S
C3551      C3552   1.419       .  A
C3551      S3555   1.802       .  S
C3552      C3553   1.406       .  A
C3553      C3554   1.397       .  A
C3553      H3560   1.084       .  S
C3554      S3556   1.805       .  S
S3555      H3558   1.407       .  S
S3556      H3557   1.405       .  S
C3561      C3562   1.406       .  A
C3561      C3566   1.419       .  A
C3562      C3563   1.404       .  A
C3562      H3571   1.084       .  S
C3563      C3564   1.414       .  A
C3563      S3567   1.804       .  S
C3564      C3565   1.402       .  A
C3565      C3566   1.402       .  A
C3565      H3572   1.084       .  S
C3566      S3568   1.803       .  S
S3568      H3569   1.407       .  S
C3573      C3574   1.407       .  A
C3573      C3578   1.418       .  A
C3574      C3575   1.406       .  A
C3574      H3583   1.084       .  S
C3575      C3576   1.414       .  A
C3575      S3579   1.800       .  S
C3576      C3577   1.403       .  A
C3577      C3578   1.404       .  A
C3577      H3584   1.084       .  S
C3578      S3580   1.803       .  S
S3579      H3582   1.405       .  S
S3580      H3581   1.407       .  S
C3585      C3586   1.407       .  A
C3585      C3590   1.417       .  A
C3586      C3587   1.407       .  A
C3586      H3595   1.083       .  S
C3587      C3588   1.416       .  A
C3587      S3591   1.806       .  S
C3588      C3589   1.401       .  A
C3589      C3590   1.397       .  A
C3589      H3596   1.082       .  S
C3590      S3592   1.806       .  S
S3591      H3594   1.401       .  S
S3592      H3593   1.406       .  S
C3597      C3598   1.401       .  A
C3597      C3602   1.413       .  A
C3598      C3599   1.399       .  A
C3598      H3607   1.084       .  S
C3599      C3600   1.421       .  A
C3599      S3603   1.806       .  S
C3600      C3601   1.403       .  A
C3601      C3602   1.394       .  A
C3601      H3608   1.084       .  S
C3602      S3604   1.805       .  S
S3603      H3606   1.404       .  S
S3604      H3605   1.406       .  S
C3609      C3610   1.408       .  A
C3609      C3614   1.415       .  A
C3610      C3611   1.400       .  A
C3610      H3619   1.083       .  S
C3611      C3612   1.417       .  A
C3611      S3615   1.806       .  S
C3612      C3613   1.407       .  A
C3613      C3614   1.400       .  A
C3613      H3620   1.083       .  S
S3615      H3618   1.406       .  S
S3616      H3617   1.406       .  S
C3621      C3622   1.407       .  A
C3621      C3626   1.410       .  A
C3622      C3623   1.403       .  A
C3622      H3631   1.083       .  S
C3623      C3624   1.414       .  A
C3623      S3627   1.804       .  S
C3624      C3625   1.405       .  A
C3625      C3626   1.395       .  A
C3625      H3632   1.084       .  S
C3626      S3628   1.804       .  S
S3627      H3630   1.406       .  S
S3628      H3629   1.406       .  S
C3633      C3634   1.405       .  A
C3633      C3638   1.413       .  A
C3634      C3635   1.402       .  A
C3634      H3643   1.084       .  S
C3635      C3636   1.421       .  A
C3635      S3639   1.805       .  S
C3636      C3637   1.409       .  A
C3637      C3638   1.402       .  A
C3638      S3640   1.801       .  S
S3639      H3642   1.406       .  S
S3640      H3641   1.407       .  S
C3645      C3646   1.407       .  A
C3645      C3650   1.416       .  A
C3646      C3647   1.400       .  A
C3646      H3655   1.083       .  S
C3647      C3648   1.416       .  A
C3648      C3649   1.407       .  A
C3649      C3650   1.398       .  A
C3649      H3656   1.083       .  S
C3650      S3652   1.806       .  S
S3651      H3654   1.406       .  S
S3652      H3653   1.407       .  S
C3657      C3658   1.406       .  A
C3657      C3662   1.411       .  A
C3658      C3659   1.399       .  A
C3658      H3667   1.084       .  S
C3659      C3660   1.412       .  A
C3659      S3663   1.803       .  S
C3660      C3661   1.408       .  A
C3661      C3662   1.399       .  A
C3661      H3668   1.084       .  S
C3662      S3664   1.805       .  S
S3664      H3665   1.405       .  S
C3669      C3670   1.406       .  A
C3669      C3674   1.413       .  A
C3670      C3671   1.408       .  A
C3670      H3679   1.083       .  S
C3671      C3672   1.420       .  A
C3671      S3675   1.803       .  S
C3672      C3673   1.401       .  A
C3673      C3674   1.392       .  A
C3674      S3676   1.807       .  S
S3675      H3678   1.407       .  S
S3676      H3677   1.406       .  S
C3681      C3682   1.407       .  A
C3681      C3686   1.410       .  A
C3682      C3683   1.402       .  A
C3682      H3691   1.084       .  S
C3683      C3684   1.413       .  A
C3683      S3687   1.803       .  S
C3684      C3685   1.406       .  A
C3685      C3686   1.398       .  A
C3685      H3692   1.084       .  S
C3686      S3688   1.804       .  S
S3687      H3690   1.406       .  S
S3688      H3689   1.406       .  S
C3693      C3694   1.405       .  A
C3693      C3698   1.415       .  A
C3694      C3695   1.404       .  A
C3694      H3703   1.084       .  S
C3695      C3696   1.417       .  A
C3695      S3699   1.803       .  S
C3696      C3697   1.399       .  A
C3697      C3698   1.397       .  A
C3697      H3704   1.077       .  S
C3698      S3700   1.811       .  S
S3699      H3702   1.403       .  S
S3700      H3701   1.406       .  S
C3705      C3706   1.408       .  A
C3705      C3710   1.420       .  A
C3706      C3707   1.396       .  A
C3706      H3715   1.084       .  S
C3707      C3708   1.414       .  A
C3707      S3711   1.812       .  S
C3708      C3709   1.404       .  A
C3709      C3710   1.406       .  A
C3709      H3716   1.084       .  S
C3710      S3712   1.805       .  S
S3711      H3714   1.402       .  S
S3712      H3713   1.406       .  S
C3717      C3718   1.409       .  A
C3717      C3722   1.428       .  A
C3718      C3719   1.398       .  A
C3718      H3727   1.078       .  S
C3719      C3720   1.413       .  A
C3719      S3723   1.805       .  S
C3720      C3721   1.401       .  A
C3721      C3722   1.402       .  A
C3721      H3728   1.081       .  S
C3722      S3724   1.806       .  S
S3723      H3726   1.407       .  S
S3724      H3725   1.407       .  S
C3729      C3730   1.402       .  A
C3729      C3734   1.414       .  A
C3730      C3731   1.402       .  A
C3730      H3739   1.084       .  S
C3731      C3732   1.419       .  A
C3731      S3735   1.808       .  S
C3732      C3733   1.404       .  A
C3733      C3734   1.404       .  A
C3733      H3740   1.084       .  S
C3734      S3736   1.803       .  S
S3735      H3738   1.400       .  S
S3736      H3737   1.406       .  S
C3741      C3742   1.403       .  A
C3741      C3746   1.412       .  A
C3742      C3743   1.401       .  A
C3742      H3751   1.084       .  S
C3743      C3744   1.418       .  A
C3744      C3745   1.404       .  A
C3745      C3746   1.400       .  A
C3745      H3752   1.084       .  S
C3746      S3748   1.803       .  S
S3747      H3750   1.400       .  S
S3748      H3749   1.407       .  S
C3753      C3754   1.405       .  A
C3753      C3758   1.414       .  A
C3754      C3755   1.403       .  A
C3754      H3763   1.084       .  S
C3755      C3756   1.414       .  A
C3755      S3759   1.804       .  S
C3756      C3757   1.404       .  A
C3757      C3758   1.400       .  A
C3757      H3764   1.084       .  S
C3758      S3760   1.799       .  S
S3759      H3762   1.405       .  S
S3760      H3761   1.407       .  S
C3765      C3766   1.403       .  A
C3765      C3770   1.414       .  A
C3766      C3767   1.403       .  A
C3766      H3775   1.082       .  S
C3767      C3768   1.420       .  A
C3767      S3771   1.800       .  S
C3768      C3769   1.410       .  A
C3769      C3770   1.404       .  A
C3769      H3776   1.083       .  S
C3770      S3772   1.806       .  S
S3771      H3774   1.408       .  S
S3772      H3773   1.404       .  S
C3777      C3778   1.403       .  A
C3777      C3782   1.415       .  A
C3778      C3779   1.401       .  A
C3778      H3787   1.084       .  S
C3779      C3780   1.415       .  A
C3779      S3783   1.805       .  S
C3780      C3781   1.402       .  A
C3781      C3782   1.401       .  A
C3781      H3788   1.083       .  S
C3782      S3784   1.803       .  S
S3783      H3786   1.405       .  S
S3784      H3785   1.407       .  S
C3789      C3790   1.405       .  A
C3789      C3794   1.416       .  A
C3790      C3791   1.399       .  A
C3790      H3799   1.082       .  S
C3791      C3792   1.412       .  A
C3791      S3795   1.804       .  S
C3792      C3793   1.404       .  A
C3793      C3794   1.402       .  A
C3793      H3800   1.084       .  S
C3794      S3796   1.805       .  S
S3795      H3798   1.407       .  S
S3796      H3797   1.405       .  S
C3801      C3802   1.398       .  A
C3801      C3806   1.409       .  A
C3802      C3803   1.399       .  A
C3802      H3811   1.083       .  S
C3803      C3804   1.419       .  A
C3803      S3807   1.803       .  S
C3804      C3805   1.406       .  A
C3805      C3806   1.403       .  A
C3805      H3812   1.083       .  S
S3807      H3810   1.408       .  S
S3808      H3809   1.407       .  S
C3813      C3814   1.403       .  A
C3813      C3818   1.413       .  A
C3814      C3815   1.400       .  A
C3814      H3823   1.082       .  S
C3815      C3816   1.418       .  A
C3815      S3819   1.800       .  S
C3816      C3817   1.409       .  A
C3817      C3818   1.401       .  A
C3817      H3824   1.084       .  S
C3818      S3820   1.805       .  S
S3819      H3822   1.408       .  S
S3820      H3821   1.406       .  S
C3825      C3826   1.402       .  A
C3825      C3830   1.414       .  A
C3826      C3827   1.405       .  A
C3826      H3835   1.083       .  S
C3827      C3828   1.416       .  A
C3827      S3831   1.809       .  S
C3828      C3829   1.407       .  A
C3829      C3830   1.404       .  A
C3829      H3836   1.084       .  S
C3830      S3832   1.805       .  S
S3831      H3834   1.406       .  S
C3837      C3838   1.409       .  A
C3837      C3842   1.422       .  A
C3838      C3839   1.402       .  A
C3838      H3847   1.083       .  S
C3839      C3840   1.414       .  A
C3839      S3843   1.805       .  S
C3840      C3841   1.404       .  A
C3841      C3842   1.406       .  A
C3841      H3848   1.083       .  S
C3842      S3844   1.800       .  S
S3843      H3846   1.406       .  S
S3844      H3845   1.408       .  S
C3849      C3850   1.404       .  A
C3849      C3854   1.417       .  A
C3850      C3851   1.398       .  A
C3850      H3859   1.084       .  S
C3851      C3852   1.413       .  A
C3851      S3855   1.801       .  S
C3852      C3853   1.401       .  A
C3853      C3854   1.399       .  A
C3853      H3860   1.084       .  S
C3854      S3856   1.803       .  S
S3855      H3858   1.406       .  S
S3856      H3857   1.407       .  S
C3861      C3862   1.401       .  A
C3861      C3866   1.414       .  A
C3862      C3863   1.403       .  A
C3862      H3871   1.083       .  S
C3863      C3864   1.423       .  A
C3863      S3867   1.802       .  S
C3864      C3865   1.409       .  A
C3865      C3866   1.404       .  A
C3865      H3872   1.083       .  S
C3866      S3868   1.805       .  S
S3867      H3870   1.408       .  S
S3868      H3869   1.406       .  S
