geometry optimzed in LAMMPS
_audit_creation_date              2020-11-30 
_audit_creation_method            'lammps2cif' 
_symmetry_space_group_name_H-M    'P1' 
_symmetry_Int_Tables_number       1 
_symmetry_cell_setting            triclinic 
loop_ 
_symmetry_equiv_pos_as_xyz 
  x,y,z 
_cell_length_a                    35.42712135 
_cell_length_b                    35.34779837038374 
_cell_length_c                    80.90008509746797 
_cell_angle_alpha                 90.09614444916785 
_cell_angle_beta                  89.8787739667258 
_cell_angle_gamma                 120.30508678099798 
loop_ 
_atom_site_label 
_atom_site_type_symbol 
_atom_site_fract_x 
_atom_site_fract_y 
_atom_site_fract_z 
_atom_site_charge 
Zn1        Zn  0.66993187  0.28176293  0.99080871     1.49700
Zn2        Zn  0.66829372  0.33249506  0.02329897     1.49400
Zn3        Zn  0.71843865  0.38676610  0.99141269     1.49100
Zn4        Zn  0.61263291  0.32915651  0.99139203     1.49500
O5          O  0.66706082  0.33246244  0.99917157    -1.83900
O6          O  0.66778805  0.24283557  0.00950009    -0.74500
O7          O  0.72531879  0.38315475  0.03215312    -0.74300
O8          O  0.75615744  0.37375933  0.97650573    -0.73800
O9          O  0.66284907  0.27626342  0.03196092    -0.74500
O10         O  0.72565914  0.30143719  0.97796355    -0.74100
O11         O  0.75847653  0.42342374  0.01005248    -0.74700
O12         O  0.62699801  0.38337993  0.97775066    -0.74100
O13         O  0.61742102  0.33688194  0.03242475    -0.74900
O14         O  0.69950398  0.42350640  0.97901587    -0.74200
O15         O  0.57502950  0.32818897  0.01085489    -0.74700
O16         O  0.57747406  0.27468427  0.97706211    -0.74600
O17         O  0.61884445  0.24402696  0.97571803    -0.74400
C18         C  0.66401894  0.24435419  0.02511755     0.77400
C19         C  0.75747334  0.41679365  0.02555175     0.77900
C20         C  0.75605706  0.33861362  0.97292118     0.76800
C21         C  0.66285064  0.41830892  0.97433965     0.77200
C22         C  0.58256895  0.33342375  0.02636649     0.78300
C23         C  0.58434581  0.24461629  0.97173211     0.77400
Zn24       Zn  0.66698815  0.33719543  0.52513322     1.49700
Zn25       Zn  0.71930234  0.33553662  0.49332933     1.49400
Zn26       Zn  0.61451938  0.28374744  0.49312237     1.49100
Zn27       Zn  0.66817046  0.38941271  0.49303168     1.49500
O28         O  0.66718939  0.33647288  0.50102734    -1.83900
O29         O  0.72347760  0.34586034  0.53436942    -0.74500
O30         O  0.70268483  0.28062274  0.48011538    -0.74300
O31         O  0.57877513  0.24542134  0.51227975    -0.73800
O32         O  0.75720667  0.33844604  0.51252620    -0.74500
O33         O  0.61862707  0.28054339  0.53424246    -0.74100
O34         O  0.63021758  0.24627460  0.47887193    -0.74700
O35         O  0.61666065  0.37301786  0.47784697    -0.74100
O36         O  0.75715677  0.38837768  0.47904586    -0.74900
O37         O  0.57706503  0.30038041  0.47957182    -0.74200
O38         O  0.72420422  0.42770133  0.48040038    -0.74700
O39         O  0.66303158  0.42492553  0.51190825    -0.74600
O40         O  0.65779522  0.38516679  0.53390743    -0.74400
C41         C  0.75544301  0.34405070  0.52801029     0.77400
C42         C  0.66635586  0.24862194  0.47517891     0.77900
C43         C  0.58542217  0.24778476  0.52782672     0.76800
C44         C  0.58258407  0.33674710  0.47418265     0.77200
C45         C  0.75573435  0.42276691  0.47551053     0.78300
C46         C  0.65777821  0.41796088  0.52743429     0.77400
N47         N  0.77665996  0.00263569  0.72441822    -0.36400
N48         N  0.75075456  0.93276905  0.74906658    -0.56900
N49         N  0.78747323  0.99831254  0.77472416    -0.36400
N50         N  0.81732208  0.06808176  0.75016265    -0.56900
C51         C  0.76333496  0.96757748  0.71433602     0.27200
C52         C  0.79912620  0.03906782  0.71499029     0.27200
C53         C  0.78213290  0.96232896  0.78276725     0.27200
C54         C  0.81725776  0.03371118  0.78334058     0.27200
C55         C  0.73038615  0.90806048  0.73565184     0.35800
C56         C  0.73516995  0.90591500  0.76234572     0.35800
C57         C  0.82236161  0.09483823  0.73738474     0.35800
C58         C  0.82549270  0.09206875  0.76408487     0.35800
C59         C  0.77524287  0.98199065  0.69818218    -0.21600
C60         C  0.79773139  0.02684091  0.69859923    -0.21600
C61         C  0.80915692  0.97505183  0.79650210    -0.21600
C62         C  0.83136640  0.02004656  0.79684858    -0.21600
C63         C  0.70191553  0.86515949  0.74042894    -0.22700
C64         C  0.70422521  0.86401525  0.75734299    -0.22700
C65         C  0.83389944  0.13615030  0.74320072    -0.22700
C66         C  0.83470155  0.13407736  0.76012631    -0.22700
C67         C  0.74003738  0.92281512  0.71909856    -0.18100
C68         C  0.82026557  0.08317607  0.72057302    -0.18100
C69         C  0.82975840  0.07784533  0.77996597    -0.18000
C70         C  0.75150327  0.91830319  0.77862769    -0.18000
H71         H  0.76830896  0.96238429  0.68710844     0.14900
H72         H  0.81110632  0.04790841  0.68791490     0.14900
H73         H  0.81242491  0.95406109  0.80540503     0.14900
H74         H  0.85503549  0.04037653  0.80608968     0.14900
H75         H  0.68161414  0.83735660  0.73261934     0.13100
H76         H  0.68579970  0.83525134  0.76495047     0.13100
H77         H  0.84106115  0.16490272  0.73610362     0.13100
H78         H  0.84252391  0.16099837  0.76846417     0.13100
H79         H  0.76887387  0.00153759  0.73681691     0.26400
H80         H  0.76796590  0.99865362  0.76519364     0.26400
N81         N  0.20344616  0.20200070  0.77423268    -0.36400
N82         N  0.17189576  0.23996789  0.74974765    -0.56900
N83         N  0.20258798  0.20435862  0.72448698    -0.36400
N84         N  0.23828353  0.17058281  0.74897433    -0.56900
C85         C  0.19521013  0.22874207  0.78360588     0.27200
C86         C  0.22974388  0.19230096  0.78315761     0.27200
C87         C  0.19469635  0.23212913  0.71567818     0.27200
C88         C  0.22920564  0.19576235  0.71524415     0.27200
C89         C  0.15101539  0.24230973  0.76335657     0.35800
C90         C  0.15029355  0.24322086  0.73656842     0.35800
C91         C  0.24108052  0.14841134  0.76204223     0.35800
C92         C  0.24070028  0.14990574  0.73532863     0.35800
C93         C  0.21710431  0.23677164  0.79854260    -0.21600
C94         C  0.23901435  0.21385267  0.79824247    -0.21600
C95         C  0.21759557  0.24216454  0.70086032    -0.21600
C96         C  0.23897898  0.21876539  0.70051135    -0.21600
C97         C  0.11609264  0.24735345  0.75885632    -0.22700
C98         C  0.11544243  0.24763660  0.74185214    -0.22700
C99         C  0.24551806  0.11357320  0.75665205    -0.22700
C100        C  0.24561685  0.11475326  0.73966961    -0.22700
C101        C  0.16455760  0.24181918  0.77972257    -0.18100
C102        C  0.24148200  0.16083089  0.77867342    -0.18100
C103        C  0.24082296  0.16407952  0.71907102    -0.18000
C104        C  0.16349475  0.24434324  0.71995871    -0.18000
H105        H  0.21639261  0.25618712  0.80876963     0.14900
H106        H  0.25855524  0.21224799  0.80818381     0.14900
H107        H  0.21780955  0.26310284  0.69107248     0.14900
H108        H  0.25870776  0.21800727  0.69042274     0.14900
H109        H  0.09331418  0.25022564  0.76695796     0.13100
H110        H  0.09187737  0.25058077  0.73431000     0.13100
H111        H  0.24825522  0.08969404  0.76410683     0.13100
H112        H  0.24875394  0.09226630  0.73146638     0.13100
H113        H  0.18688222  0.18621637  0.76347910     0.26400
H114        H  0.18572498  0.18720151  0.73500990     0.26400
N115        N  0.99534228  0.79251985  0.72427835    -0.36400
N116        N  0.06342262  0.81409574  0.74894909    -0.56900
N117        N  0.99715951  0.78716953  0.77419192    -0.36400
N118        N  0.92892146  0.76225506  0.74975486    -0.56900
C119        C  0.02900296  0.79801601  0.71457549     0.27200
C120        C  0.95809884  0.77034402  0.71528699     0.27200
C121        C  0.03139060  0.79151396  0.78307427     0.27200
C122        C  0.96082243  0.76312727  0.78339413     0.27200
C123        C  0.08888310  0.83250309  0.73547806     0.35800
C124        C  0.08967972  0.83116048  0.76234216     0.35800
C125        C  0.90559250  0.76379926  0.73688798     0.35800
C126        C  0.90669440  0.76074406  0.76353129     0.35800
C127        C  0.01263767  0.77919528  0.69921653    -0.21600
C128        C  0.96810549  0.76091563  0.69983548    -0.21600
C129        C  0.01657185  0.76930073  0.79794415    -0.21600
C130        C  0.97193572  0.75138784  0.79815581    -0.21600
C131        C  0.13188127  0.85997398  0.74042206    -0.22700
C132        C  0.13210877  0.86003392  0.75735510    -0.22700
C133        C  0.86841301  0.76345616  0.74252248    -0.22700
C134        C  0.86898652  0.76123226  0.75946479    -0.22700
C135        C  0.07405866  0.82325890  0.71882597    -0.18100
C136        C  0.91599704  0.76183805  0.72018562    -0.18100
C137        C  0.91898006  0.75625087  0.77960386    -0.18000
C138        C  0.07582655  0.81949552  0.77893624    -0.18000
H139        H  0.03012918  0.77881296  0.68836286     0.14900
H140        H  0.94586687  0.74367249  0.68977981     0.14900
H141        H  0.03611639  0.76747223  0.80783638     0.14900
H142        H  0.95030444  0.73311169  0.80825608     0.14900
H143        H  0.16061899  0.87815713  0.73281393     0.13100
H144        H  0.16061203  0.87903066  0.76498161     0.13100
H145        H  0.84331203  0.76430576  0.73520917     0.13100
H146        H  0.84443208  0.75990503  0.76781540     0.13100
H147        H  0.99836800  0.80808584  0.73548537     0.26400
H148        H  0.99926019  0.80527107  0.76379636     0.26400
C149        C  0.97553717  0.33490239  0.60335991     0.02500
C150        C  0.02150408  0.35503602  0.60174041     0.02500
C151        C  0.04501100  0.34626214  0.61362282    -0.18000
C152        C  0.02378923  0.31780602  0.62687272     0.02500
C153        C  0.97766307  0.29599080  0.62807434     0.02500
C154        C  0.95427020  0.30522737  0.61638065    -0.12400
H155        H  0.91892719  0.28869632  0.61729662     0.04500
H156        H  0.08037061  0.36270573  0.61281248     0.04500
C157        C  0.33185661  0.97665874  0.60225443     0.02500
C158        C  0.35522309  0.02292209  0.60232376     0.02500
C159        C  0.34393598  0.04518466  0.61384870    -0.18000
C160        C  0.31177733  0.02288845  0.62591680     0.02500
C161        C  0.29145733  0.97639641  0.62710187     0.02500
C162        C  0.30142119  0.95426905  0.61492757    -0.18000
H163        H  0.28632197  0.91895201  0.61546278     0.04500
H164        H  0.36051606  0.08068707  0.61337212     0.04500
C165        C  0.63938098  0.66111234  0.89632654     0.02500
C166        C  0.66789395  0.64419552  0.89787820     0.02500
C167        C  0.69990310  0.65429220  0.88569920    -0.18000
C168        C  0.70474447  0.68140178  0.87230195     0.02500
C169        C  0.67639065  0.69853325  0.87064133     0.02500
C170        C  0.64395654  0.68789760  0.88270253    -0.18000
H171        H  0.62238702  0.70119604  0.88162420     0.04500
H172        H  0.72167181  0.64119399  0.88671741     0.04500
C173        C  0.65366964  0.63790456  0.60490194     0.02500
C174        C  0.63572852  0.66557742  0.60327972     0.02500
C175        C  0.64619832  0.69865878  0.61507230    -0.18000
C176        C  0.67506407  0.70573514  0.62805892     0.02500
C177        C  0.69364084  0.67864490  0.62948471     0.02500
C178        C  0.68232110  0.64479298  0.61806745    -0.18000
H179        H  0.69686547  0.62429232  0.61920569     0.04500
H180        H  0.63184403  0.71936538  0.61409774     0.04500
C181        C  0.33751463  0.97366990  0.89455378     0.02500
C182        C  0.35881701  0.02014492  0.89418366     0.02500
C183        C  0.34901294  0.04050538  0.88126511    -0.18000
C184        C  0.31822515  0.01588258  0.86906820     0.02500
C185        C  0.29649358  0.96980930  0.86962354     0.02500
C186        C  0.30654808  0.94928202  0.88220904    -0.18000
H187        H  0.28919289  0.91376594  0.88261333     0.04500
H188        H  0.36533184  0.07596640  0.88073249     0.04500
C189        C  0.97838878  0.33683573  0.89619102     0.02500
C190        C  0.02463013  0.36140607  0.89606691     0.02500
C191        C  0.04749109  0.35387176  0.88345672    -0.18000
C192        C  0.02538118  0.32252778  0.87110216     0.02500
C193        C  0.97906310  0.29959492  0.87072223     0.02500
C194        C  0.95636628  0.30701392  0.88333182    -0.18000
H195        H  0.92092376  0.28958504  0.88309107     0.04500
H196        H  0.08294413  0.37143061  0.88361234     0.04500
Zn197      Zn  0.32786775  0.61274480  0.50685039     1.49700
Zn198      Zn  0.33330742  0.66649605  0.47466584     1.49400
Zn199      Zn  0.28078470  0.66957413  0.50634698     1.49100
Zn200      Zn  0.38588776  0.71849462  0.50658719     1.49500
O201        O  0.33197123  0.66690298  0.49872431    -1.83900
O202        O  0.33128399  0.57637239  0.48816649    -0.74500
O203        O  0.27666459  0.65757871  0.46535104    -0.74300
O204        O  0.24088606  0.61703923  0.52049147    -0.73800
O205        O  0.34239872  0.61804629  0.46612122    -0.74500
O206        O  0.27155971  0.57567130  0.51961440    -0.74100
O207        O  0.24372775  0.66747654  0.48694508    -0.74700
O208        O  0.37157145  0.75465748  0.52199751    -0.74100
O209        O  0.38228329  0.72351313  0.46575696    -0.74900
O210        O  0.29939621  0.72405328  0.52016234    -0.74200
O211        O  0.42196690  0.75886208  0.48769657    -0.74700
O212        O  0.42263031  0.69945361  0.51921600    -0.74600
O213        O  0.37941538  0.62727515  0.52153404    -0.74400
C214        C  0.33919419  0.58391267  0.47278142     0.77400
C215        C  0.24501659  0.66029669  0.47155636     0.77900
C216        C  0.24071932  0.58196972  0.52425875     0.76800
C217        C  0.33620097  0.75381415  0.52577347     0.77200
C218        C  0.41538550  0.75654554  0.47213980     0.78300
C219        C  0.41515377  0.66246138  0.52468284     0.77400
Zn220      Zn  0.33378327  0.66651757  0.97623289     1.49700
Zn221      Zn  0.38874248  0.66959887  0.00803256     1.49400
Zn222      Zn  0.33355175  0.71892620  0.00843508     1.49100
Zn223      Zn  0.28410660  0.61355311  0.00890408     1.49500
O224        O  0.33498100  0.66713131  0.00041130    -1.83900
O225        O  0.38381779  0.66067516  0.96672572    -0.74500
O226        O  0.42656667  0.72498672  0.02097681    -0.74300
O227        O  0.33292803  0.75638446  0.98960237    -0.73800
O228        O  0.42397565  0.66781075  0.98882172    -0.74500
O229        O  0.33837725  0.72234811  0.96743580    -0.74100
O230        O  0.38749811  0.75813325  0.02184709    -0.74700
O231        O  0.24871310  0.62850260  0.02456560    -0.74100
O232        O  0.37560499  0.61719810  0.02224454    -0.74900
O233        O  0.28060596  0.70098429  0.02292025    -0.74200
O234        O  0.30325506  0.57609567  0.02113906    -0.74700
O235        O  0.24319427  0.57730534  0.99036238    -0.74600
O236        O  0.27687468  0.61574199  0.96791943    -0.74400
C237        C  0.41753792  0.66277444  0.97329508     0.77400
C238        C  0.42176618  0.75683595  0.02555248     0.77900
C239        C  0.33657713  0.75424871  0.97400475     0.76800
C240        C  0.25045547  0.66431485  0.02849137     0.77200
C241        C  0.34024884  0.58207859  0.02582114     0.78300
C242        C  0.24445973  0.58292005  0.97476649     0.77400
N243        N  0.99972828  0.21203333  0.27544767    -0.36400
N244        N  0.93683982  0.18271002  0.24890263    -0.56900
N245        N  0.00864416  0.22194989  0.22507459    -0.36400
N246        N  0.07123117  0.24873996  0.25180349    -0.56900
C247        C  0.96217134  0.18459678  0.28347814     0.27200
C248        C  0.03310162  0.21626836  0.28492021     0.27200
C249        C  0.97467555  0.19577352  0.21503920     0.27200
C250        C  0.04609108  0.23353523  0.21664127     0.27200
C251        C  0.90982587  0.17689807  0.26172822     0.35800
C252        C  0.91398512  0.17792790  0.23492518     0.35800
C253        C  0.09402292  0.26393077  0.26601991     0.35800
C254        C  0.09888537  0.27180915  0.23938237     0.35800
C255        C  0.97171789  0.17088409  0.29812054    -0.21600
C256        C  0.01640754  0.19119054  0.29912570    -0.21600
C257        C  0.99099005  0.19155053  0.19995107    -0.21600
C258        C  0.03574522  0.21463465  0.20106685    -0.21600
C259        C  0.86982090  0.16910525  0.25586234    -0.22700
C260        C  0.87200738  0.16850375  0.23894120    -0.22700
C261        C  0.13644608  0.29677219  0.26262636    -0.22700
C262        C  0.13929997  0.30228597  0.24578565    -0.22700
C263        C  0.91977500  0.17431517  0.27849282    -0.18100
C264        C  0.07801551  0.24531178  0.28174410    -0.18100
C265        C  0.08931284  0.26219000  0.22237855    -0.18000
C266        C  0.92956400  0.17824014  0.21874103    -0.18000
H267        H  0.94888984  0.14901981  0.30729872     0.14900
H268        H  0.03423972  0.18827241  0.30939465     0.14900
H269        H  0.97300349  0.17428878  0.18903171     0.14900
H270        H  0.05800344  0.21724022  0.19136995     0.14900
H271        H  0.84145071  0.16327943  0.26293960     0.13100
H272        H  0.84530060  0.16154825  0.23071052     0.13100
H273        H  0.16290668  0.31449415  0.27127580     0.13100
H274        H  0.16828466  0.32530096  0.23903614     0.13100
H275        H  0.00247145  0.23108495  0.26522336     0.26400
H276        H  0.00645060  0.23488076  0.23634602     0.26400
N277        N  0.80043382  0.80280992  0.27500270    -0.36400
N278        N  0.76639635  0.83352111  0.24905415    -0.56900
N279        N  0.79842234  0.79492564  0.22513418    -0.36400
N280        N  0.82790353  0.75958121  0.25105388    -0.56900
C281        C  0.77569852  0.81472712  0.28390372     0.27200
C282        C  0.81010747  0.77823834  0.28496219     0.27200
C283        C  0.77260760  0.80432012  0.21575480     0.27200
C284        C  0.80373528  0.76460477  0.21685069     0.27200
C285        C  0.76456925  0.85682733  0.26197192     0.35800
C286        C  0.76597641  0.85467941  0.23523193     0.35800
C287        C  0.84947162  0.75804303  0.26455193     0.35800
C288        C  0.84662403  0.75186842  0.23787579     0.35800
C289        C  0.76915953  0.79706066  0.29965684    -0.21600
C290        C  0.79105943  0.77415264  0.30034648    -0.21600
C291        C  0.76054639  0.77886748  0.20153565    -0.21600
C292        C  0.78042165  0.75400679  0.20218748    -0.21600
C293        C  0.76276400  0.89287742  0.25640620    -0.22700
C294        C  0.76434721  0.89192885  0.23943588    -0.22700
C295        C  0.88158870  0.74863805  0.25997340    -0.22700
C296        C  0.87984203  0.74480313  0.24303836    -0.22700
C297        C  0.76298099  0.84482659  0.27867899    -0.18100
C298        C  0.83913589  0.76315654  0.28097505    -0.18100
C299        C  0.83308167  0.75025383  0.22134286    -0.18000
C300        C  0.76359225  0.83843190  0.21902385    -0.18000
H301        H  0.75157337  0.80134791  0.30975812     0.14900
H302        H  0.79350468  0.75721784  0.31106186     0.14900
H303        H  0.74041370  0.77898272  0.19151701     0.14900
H304        H  0.77877332  0.73143899  0.19276754     0.14900
H305        H  0.76104455  0.91751132  0.26380329     0.13100
H306        H  0.76408237  0.91586615  0.23119785     0.13100
H307        H  0.90407067  0.74513053  0.26798020     0.13100
H308        H  0.90087769  0.73797945  0.23543897     0.13100
H309        H  0.81500249  0.81563457  0.26363856     0.26400
H310        H  0.81650478  0.81284936  0.23533306     0.26400
C311        C  0.66679453  0.02796553  0.39674748     0.02500
C312        C  0.64110846  0.98168373  0.39534892     0.02500
C313        C  0.64893836  0.96092031  0.38195279    -0.18000
C314        C  0.68006341  0.98488463  0.36971115     0.02500
C315        C  0.70242413  0.03131389  0.37027004     0.02500
C316        C  0.69615247  0.05194774  0.38395677    -0.18000
H317        H  0.71377395  0.08744438  0.38454642     0.04500
H318        H  0.63123816  0.92543529  0.38125095     0.04500
N319        N  0.21077716  0.00188577  0.27505753    -0.36400
N320        N  0.18098675  0.93314073  0.25046322    -0.56900
N321        N  0.21085429  0.99815670  0.22454198    -0.36400
N322        N  0.23788368  0.06685519  0.24917339    -0.56900
C323        C  0.18383730  0.96573196  0.28394901     0.27200
C324        C  0.21394808  0.03673781  0.28326660     0.27200
C325        C  0.18538125  0.96089633  0.21593601     0.27200
C326        C  0.21598490  0.03210353  0.21515803     0.27200
C327        C  0.17942733  0.91059640  0.26414245     0.35800
C328        C  0.17919650  0.90841476  0.23743048     0.35800
C329        C  0.25615317  0.09349050  0.26235841     0.35800
C330        C  0.25638772  0.09155717  0.23556937     0.35800
C331        C  0.16924847  0.97766521  0.29783355    -0.21600
C332        C  0.18824862  0.02251416  0.29739740    -0.21600
C333        C  0.17404603  0.97133822  0.20093085    -0.21600
C334        C  0.19384818  0.01623870  0.20033686    -0.21600
C335        C  0.17748057  0.87169868  0.25980997    -0.22700
C336        C  0.17727681  0.87028562  0.24283454    -0.22700
C337        C  0.28690185  0.13522522  0.25709380    -0.22700
C338        C  0.28650867  0.13417795  0.24011895    -0.22700
C339        C  0.17453964  0.92274967  0.28026956    -0.18100
C340        C  0.24202696  0.08111237  0.27886800    -0.18100
C341        C  0.24276942  0.07696419  0.21922983    -0.18000
C342        C  0.17479657  0.91818245  0.22088864    -0.18000
H343        H  0.14736148  0.95634786  0.30734606     0.14900
H344        H  0.18384646  0.04240473  0.30651582     0.14900
H345        H  0.15407482  0.94907243  0.19125977     0.14900
H346        H  0.19227056  0.03484393  0.19003687     0.14900
H347        H  0.17535469  0.84652393  0.26800439     0.13100
H348        H  0.17509330  0.84385602  0.23534606     0.13100
H349        H  0.30691507  0.16379013  0.26461634     0.13100
H350        H  0.30575790  0.16187673  0.23211124     0.13100
H351        H  0.22995956  0.00317308  0.26504986     0.26400
H352        H  0.22788856  0.00066494  0.23534038     0.26400
C353        C  0.67166716  0.02557069  0.10233820     0.02500
C354        C  0.65135573  0.97931886  0.10133040     0.02500
C355        C  0.65961359  0.95673307  0.11377915    -0.18000
C356        C  0.68807174  0.97889641  0.12686733     0.02500
C357        C  0.70976458  0.02520981  0.12759778     0.02500
C358        C  0.70055416  0.04778330  0.11546781    -0.18000
H359        H  0.71718334  0.08326711  0.11592537     0.04500
H360        H  0.64324897  0.92124525  0.11341980     0.04500
C361        C  0.36084487  0.33602795  0.39658565     0.02500
C362        C  0.33808705  0.35916856  0.39720084     0.02500
C363        C  0.30512844  0.34980535  0.38558052    -0.18000
C364        C  0.29543489  0.31889836  0.37297106     0.02500
C365        C  0.32178361  0.29931314  0.37126179     0.02500
C366        C  0.35320499  0.30721849  0.38339954    -0.18000
H367        H  0.37230409  0.29110636  0.38254938     0.04500
H368        H  0.28617201  0.36602776  0.38665718     0.04500
C369        C  0.36607393  0.34198454  0.10527942     0.02500
C370        C  0.34480208  0.36671129  0.10517322     0.02500
C371        C  0.31859633  0.36398054  0.11874935    -0.18000
C372        C  0.31068652  0.33512567  0.13199076     0.02500
C373        C  0.32815005  0.30671599  0.13109420     0.02500
C374        C  0.35684111  0.31183408  0.11814640    -0.18000
H375        H  0.37122369  0.29107868  0.11776285     0.04500
H376        H  0.30439188  0.38488244  0.11895402     0.04500
C377        C  0.02240128  0.66219713  0.39598398     0.02500
C378        C  0.97715349  0.64666225  0.39786875     0.02500
C379        C  0.95597914  0.65912469  0.38624542    -0.18000
C380        C  0.97887447  0.68718725  0.37307746     0.02500
C381        C  0.02420454  0.70313930  0.37128643     0.02500
C382        C  0.04520886  0.69038543  0.38276511    -0.18000
H383        H  0.07998800  0.70280961  0.38143326     0.04500
H384        H  0.92120663  0.64689766  0.38746608     0.04500
C385        C  0.97806070  0.63014872  0.10649745     0.02500
C386        C  0.02425264  0.65511147  0.10637557     0.02500
C387        C  0.04617520  0.68277854  0.11977726    -0.18000
C388        C  0.02358339  0.68870480  0.13287946     0.02500
C389        C  0.97717887  0.66541164  0.13259389     0.02500
C390        C  0.95512804  0.63547782  0.11972974    -0.18000
H391        H  0.91967916  0.61777301  0.11957537     0.04500
H392        H  0.08161832  0.70029980  0.11986627     0.04500
C393        C  0.15620350  0.88884207  0.29350891    -0.01000
C394        C  0.17728311  0.89647576  0.30880312    -0.09100
C395        C  0.15863777  0.86621270  0.32165749    -0.17900
C396        C  0.11836572  0.82679083  0.31949199     0.04500
C397        C  0.09839157  0.81819167  0.30364565     0.18700
C398        C  0.11688298  0.84945295  0.29100117    -0.19300
C399        C  0.05986686  0.77859427  0.30053740    -0.20600
C400        C  0.04046756  0.74729460  0.31289457    -0.19100
C401        C  0.05825303  0.75553991  0.32881250     0.20100
C402        C  0.09706393  0.79567867  0.33244593     0.02200
C403        C  0.11200416  0.80342101  0.34898871    -0.13900
C404        C  0.08871787  0.77301712  0.36140903    -0.11600
C405        C  0.05048975  0.73358847  0.35773185     0.01700
C406        C  0.03657379  0.72435159  0.34126317    -0.23800
H407        H  0.20808731  0.92642024  0.31087725     0.09700
H408        H  0.17670058  0.87439696  0.33307524     0.13300
H409        H  0.10040493  0.84335672  0.27918129     0.12000
H410        H  0.04469868  0.77171928  0.28844223     0.13200
H411        H  0.01064044  0.71692654  0.31010572     0.12200
H412        H  0.14057007  0.83337377  0.35283862     0.09300
H413        H  0.10005911  0.78086300  0.37405699     0.12600
H414        H  0.00777497  0.69335626  0.33822472     0.14500
C415        C  0.15651158  0.88211666  0.20841718    -0.01000
C416        C  0.17815079  0.88708672  0.19337093    -0.09100
C417        C  0.15923056  0.85542304  0.18099502    -0.17900
C418        C  0.11833947  0.81700454  0.18348797     0.04500
C419        C  0.09842687  0.81024303  0.19929845     0.18700
C420        C  0.11688931  0.84321505  0.21138676    -0.19300
C421        C  0.06011577  0.77076123  0.20286736    -0.20600
C422        C  0.04111057  0.73786835  0.19099158    -0.19100
C423        C  0.05844749  0.74481370  0.17497870     0.20100
C424        C  0.09654238  0.78503357  0.17087589     0.02200
C425        C  0.11006042  0.79236351  0.15417845    -0.13900
C426        C  0.08630473  0.76124310  0.14205260    -0.11600
C427        C  0.04941439  0.72094442  0.14617596     0.01700
C428        C  0.03701019  0.71239135  0.16287042    -0.23800
H429        H  0.20947222  0.91622199  0.19104754     0.09700
H430        H  0.17764144  0.86149614  0.16970338     0.13300
H431        H  0.10022520  0.83881530  0.22309953     0.12000
H432        H  0.04501923  0.76511845  0.21496689     0.13200
H433        H  0.01167514  0.70749934  0.19415311     0.12200
H434        H  0.13749240  0.82282148  0.14998455     0.09300
H435        H  0.09646008  0.76927931  0.12928947     0.12600
H436        H  0.00984397  0.68085188  0.16643854     0.14500
C437        C  0.31706957  0.27074152  0.35691346    -0.01000
C438        C  0.31369121  0.28338715  0.34080915    -0.09100
C439        C  0.30222610  0.25407741  0.32765267    -0.17900
C440        C  0.29589730  0.21171609  0.33008349     0.04500
C441        C  0.30458717  0.20100579  0.34601227     0.18700
C442        C  0.31396207  0.22998423  0.35931939    -0.19300
C443        C  0.30344352  0.16128443  0.34855438    -0.20600
C444        C  0.29400022  0.13205504  0.33554644    -0.19100
C445        C  0.28283198  0.14066245  0.31997536     0.20100
C446        C  0.28199854  0.17988443  0.31721069     0.02200
C447        C  0.26568087  0.18479536  0.30192642    -0.13900
C448        C  0.25198079  0.15253039  0.28972393    -0.11600
C449        C  0.25590201  0.11535533  0.29202866     0.01700
C450        C  0.27156354  0.10983529  0.30723153    -0.23800
H451        H  0.31817290  0.31558222  0.33850835     0.09700
H452        H  0.29925279  0.26561719  0.31566059     0.13300
H453        H  0.31766523  0.22028891  0.37164113     0.12000
H454        H  0.31053935  0.15307342  0.36061255     0.13200
H455        H  0.29414489  0.10191563  0.33780901     0.12200
H456        H  0.26149597  0.21239518  0.29935272     0.09300
H457        H  0.23822159  0.15666416  0.27839553     0.12600
H458        H  0.27399428  0.08081945  0.30926438     0.14500
C459        C  0.31477333  0.26974446  0.14287893    -0.01000
C460        C  0.27036452  0.24129911  0.14622930    -0.09100
C461        C  0.25723605  0.20928692  0.15842493    -0.17900
C462        C  0.28827251  0.20364088  0.16734829     0.04500
C463        C  0.33303847  0.22977844  0.16284532     0.18700
C464        C  0.34596340  0.26300887  0.15091334    -0.19300
C465        C  0.36449459  0.22259386  0.17032455    -0.20600
C466        C  0.35235923  0.18991157  0.18217757    -0.19100
C467        C  0.30881316  0.16507407  0.18740596     0.20100
C468        C  0.27635192  0.17249078  0.18038361     0.02200
C469        C  0.23358943  0.14931086  0.18702838    -0.13900
C470        C  0.22325484  0.11903747  0.19974654    -0.11600
C471        C  0.25474718  0.11015678  0.20597651     0.01700
C472        C  0.29752463  0.13328832  0.19980454    -0.23800
H473        H  0.24562477  0.24465113  0.13963792     0.09700
H474        H  0.22252401  0.18893544  0.16038944     0.13300
H475        H  0.38035213  0.28417182  0.14808903     0.12000
H476        H  0.39863077  0.24202471  0.16684098     0.13200
H477        H  0.37736159  0.18470329  0.18756200     0.12200
H478        H  0.20776001  0.15476406  0.18296876     0.09300
H479        H  0.19031536  0.10208046  0.20469207     0.12600
H480        H  0.32210566  0.12696239  0.20489352     0.14500
C481        C  0.86012377  0.75305685  0.29476693    -0.01000
C482        C  0.89011846  0.78679523  0.30496529    -0.09100
C483        C  0.90949120  0.77779528  0.31822244    -0.17900
C484        C  0.89902566  0.73435422  0.32175270     0.04500
C485        C  0.86867288  0.70031172  0.31120094     0.18700
C486        C  0.84965626  0.70994610  0.29785467    -0.19300
C487        C  0.85730045  0.65681290  0.31406183    -0.20600
C488        C  0.87533461  0.64618914  0.32722288    -0.19100
C489        C  0.90516904  0.67879562  0.33785759     0.20100
C490        C  0.91750446  0.72340888  0.33532138     0.02200
C491        C  0.94791866  0.75501575  0.34644866    -0.13900
C492        C  0.96620119  0.74289905  0.35918482    -0.11600
C493        C  0.95478465  0.69911825  0.36124666     0.01700
C494        C  0.92346572  0.66708379  0.35084015    -0.23800
H495        H  0.89853123  0.82033840  0.30263217     0.09700
H496        H  0.93234357  0.80551534  0.32548034     0.13300
H497        H  0.82631205  0.68389216  0.28991367     0.12000
H498        H  0.83426542  0.63078170  0.30605304     0.13200
H499        H  0.86596751  0.61218734  0.32906715     0.12200
H500        H  0.95881158  0.78941137  0.34550122     0.09300
H501        H  0.99044916  0.76799244  0.36717423     0.12600
H502        H  0.91491944  0.63319990  0.35240799     0.14500
C503        C  0.85284463  0.73678725  0.20788249    -0.01000
C504        C  0.87548448  0.76629447  0.19509874    -0.09100
C505        C  0.89469789  0.75532481  0.18232934    -0.17900
C506        C  0.89210115  0.71407707  0.18188459     0.04500
C507        C  0.86893620  0.68396747  0.19485592     0.18700
C508        C  0.84959391  0.69551430  0.20769786    -0.19300
C509        C  0.86524216  0.64258997  0.19488696    -0.20600
C510        C  0.88378803  0.63033619  0.18226940    -0.19100
C511        C  0.90688432  0.65926075  0.16934824     0.20100
C512        C  0.91168310  0.70173211  0.16905151     0.02200
C513        C  0.93634359  0.73022253  0.15600550    -0.13900
C514        C  0.95602352  0.71745491  0.14401060    -0.11600
C515        C  0.95157961  0.67587914  0.14442142     0.01700
C516        C  0.92607319  0.64641155  0.15688697    -0.23800
H517        H  0.87847433  0.79835359  0.19504167     0.09700
H518        H  0.91126422  0.77995536  0.17298394     0.13300
H519        H  0.83191129  0.67243919  0.21753687     0.12000
H520        H  0.84776700  0.61946143  0.20472678     0.13200
H521        H  0.88027535  0.59806600  0.18268111     0.12200
H522        H  0.94189239  0.76298295  0.15486629     0.09300
H523        H  0.97576935  0.74061356  0.13449310     0.12600
H524        H  0.92304135  0.61433287  0.15731649     0.14500
C525        C  0.74913374  0.86578272  0.29140607    -0.01000
C526        C  0.70528532  0.85436187  0.29288432    -0.09100
C527        C  0.69196151  0.87238586  0.30545305    -0.17900
C528        C  0.72245063  0.90273223  0.31691224     0.04500
C529        C  0.76715276  0.91501719  0.31493773     0.18700
C530        C  0.77991400  0.89634025  0.30236183    -0.19300
C531        C  0.79894275  0.94568615  0.32559160    -0.20600
C532        C  0.78738678  0.96419528  0.33835349    -0.19100
C533        C  0.74367620  0.95217429  0.34090835     0.20100
C534        C  0.71043619  0.92130667  0.33025548     0.02200
C535        C  0.66675647  0.91026852  0.33356334    -0.13900
C536        C  0.65681491  0.92975834  0.34666319    -0.11600
C537        C  0.68993179  0.96088137  0.35682604     0.01700
C538        C  0.73314703  0.97117470  0.35405950    -0.23800
H539        H  0.68116546  0.83084104  0.28442267     0.09700
H540        H  0.65765165  0.86188170  0.30590758     0.13300
H541        H  0.81392956  0.90532851  0.30110615     0.12000
H542        H  0.83305970  0.95539346  0.32406309     0.13200
H543        H  0.81285399  0.98792018  0.34636909     0.12200
H544        H  0.63961775  0.88688837  0.32620195     0.09300
H545        H  0.62321212  0.92141571  0.34858543     0.12600
H546        H  0.75883727  0.99493033  0.36200999     0.14500
C547        C  0.75123412  0.85740956  0.20494005    -0.01000
C548        C  0.77613726  0.86986695  0.19037014    -0.09100
C549        C  0.76459617  0.88671099  0.17696870    -0.17900
C550        C  0.72855475  0.89338080  0.17794749     0.04500
C551        C  0.70504141  0.88338523  0.19307376     0.18700
C552        C  0.71524626  0.86377074  0.20607194    -0.19300
C553        C  0.67220907  0.89397886  0.19523664    -0.20600
C554        C  0.66318216  0.91550448  0.18281847    -0.19100
C555        C  0.68476521  0.92431053  0.16756923     0.20100
C556        C  0.71611702  0.91121366  0.16465825     0.02200
C557        C  0.73318012  0.91588878  0.14850344    -0.13900
C558        C  0.72176618  0.93551683  0.13606339    -0.11600
C559        C  0.69477113  0.95278036  0.13954420     0.01700
C560        C  0.67542229  0.94621229  0.15517459    -0.23800
H561        H  0.80477448  0.86645960  0.18933853     0.09700
H562        H  0.78551389  0.89593520  0.16623760     0.13300
H563        H  0.69572233  0.85432726  0.21726593     0.12000
H564        H  0.65443108  0.88690394  0.20680668     0.13200
H565        H  0.63871547  0.92472130  0.18506198     0.12200
H566        H  0.75479849  0.90398900  0.14509503     0.09300
H567        H  0.73585205  0.93930313  0.12385147     0.12600
H568        H  0.65324095  0.95826723  0.15764656     0.14500
C569        C  0.73211871  0.05880113  0.35667567    -0.01000
C570        C  0.77336261  0.09497873  0.36020117    -0.09100
C571        C  0.80279518  0.11823798  0.34748461    -0.17900
C572        C  0.79246066  0.10470212  0.33083383     0.04500
C573        C  0.75073543  0.06790063  0.32738146     0.18700
C574        C  0.72021127  0.04738013  0.34010140    -0.19300
C575        C  0.74057444  0.05023899  0.31142301    -0.20600
C576        C  0.77196762  0.06701276  0.29898990    -0.19100
C577        C  0.81308671  0.10378541  0.30193204     0.20100
C578        C  0.82287318  0.12475020  0.31761573     0.02200
C579        C  0.86269200  0.16467207  0.31937871    -0.13900
C580        C  0.89258851  0.18161241  0.30634849    -0.11600
C581        C  0.88476431  0.15849059  0.29142753     0.01700
C582        C  0.84468859  0.11953635  0.28933469    -0.23800
H583        H  0.78351255  0.10447542  0.37288165     0.09700
H584        H  0.83440473  0.14489173  0.35111337     0.13300
H585        H  0.68788325  0.02045489  0.33716872     0.12000
H586        H  0.70893087  0.02185073  0.30876153     0.13200
H587        H  0.76392175  0.05135721  0.28696139     0.12200
H588        H  0.87111681  0.18382417  0.33058183     0.09300
H589        H  0.92280616  0.21236717  0.30811403     0.12600
H590        H  0.83818355  0.10117344  0.27792153     0.14500
C591        C  0.74299114  0.05064731  0.14054376    -0.01000
C592        C  0.74092703  0.08328951  0.14967392    -0.09100
C593        C  0.77145435  0.10632071  0.16213076    -0.17900
C594        C  0.80435922  0.09637890  0.16615589     0.04500
C595        C  0.80569555  0.06272108  0.15702954     0.18700
C596        C  0.77683553  0.04216828  0.14385334    -0.19300
C597        C  0.83513526  0.04898294  0.16133592    -0.20600
C598        C  0.86252982  0.06715668  0.17489145    -0.19100
C599        C  0.86306257  0.10138494  0.18379996     0.20100
C600        C  0.83538824  0.11783828  0.17910544     0.02200
C601        C  0.84075016  0.15558498  0.18732422    -0.13900
C602        C  0.87194563  0.17566396  0.19981430    -0.11600
C603        C  0.89699359  0.15748671  0.20512604     0.01700
C604        C  0.89178030  0.11986049  0.19720171    -0.23800
H605        H  0.71519109  0.09060208  0.14731315     0.09700
H606        H  0.76746532  0.13044239  0.16885925     0.13300
H607        H  0.78045477  0.01897412  0.13627637     0.12000
H608        H  0.83596353  0.02299870  0.15450459     0.13200
H609        H  0.88409593  0.05497742  0.17822092     0.12200
H610        H  0.82243059  0.17117921  0.18392518     0.09300
H611        H  0.87628027  0.20536948  0.20549695     0.12600
H612        H  0.91140341  0.10589622  0.20115049     0.14500
C613        C  0.10955063  0.25567965  0.29547515    -0.01000
C614        C  0.11833397  0.22367275  0.30131548    -0.09100
C615        C  0.14549457  0.23200483  0.31494725    -0.17900
C616        C  0.16592461  0.27340127  0.32280001     0.04500
C617        C  0.15938391  0.30673536  0.31604221     0.18700
C618        C  0.13021410  0.29720021  0.30285151    -0.19300
C619        C  0.18262313  0.34946898  0.32230932    -0.20600
C620        C  0.21339960  0.36008202  0.33478553    -0.19100
C621        C  0.21958752  0.32762349  0.34198498     0.20100
C622        C  0.19406438  0.28338975  0.33669067     0.02200
C623        C  0.19741881  0.25098195  0.34564648    -0.13900
C624        C  0.22786283  0.26257987  0.35833723    -0.11600
C625        C  0.25733468  0.30676183  0.36193502     0.01700
C626        C  0.25165389  0.33907697  0.35423868    -0.23800
H627        H  0.10332224  0.19174421  0.29546612     0.09700
H628        H  0.15107232  0.20599924  0.31876514     0.13300
H629        H  0.12401180  0.32223009  0.29810494     0.12000
H630        H  0.17806078  0.37515163  0.31714360     0.13200
H631        H  0.23217378  0.39378708  0.33893618     0.12200
H632        H  0.17660190  0.21645501  0.34319764     0.09300
H633        H  0.22993963  0.23690152  0.36481798     0.12600
H634        H  0.27322903  0.37326723  0.35733748     0.14500
C635        C  0.28366684  0.33452200  0.14641941    -0.01000
C636        C  0.29525497  0.33044216  0.16264331    -0.09100
C637        C  0.26650446  0.32201279  0.17581760    -0.17900
C638        C  0.22598676  0.31977185  0.17332778     0.04500
C639        C  0.21720190  0.33024390  0.15738697     0.18700
C640        C  0.24528005  0.33627318  0.14404564    -0.19300
C641        C  0.17994083  0.33364567  0.15482588    -0.20600
C642        C  0.15074286  0.32585630  0.16770598    -0.19100
C643        C  0.15661037  0.31171492  0.18314837     0.20100
C644        C  0.19383883  0.30745505  0.18604339     0.02200
C645        C  0.19595820  0.28849772  0.20112335    -0.13900
C646        C  0.16220989  0.27395801  0.21273541    -0.11600
C647        C  0.12632526  0.27982965  0.21017236     0.01700
C648        C  0.12447800  0.29989488  0.19546199    -0.23800
H649        H  0.32601856  0.33192149  0.16506726     0.09700
H650        H  0.27694381  0.31789156  0.18786596     0.13300
H651        H  0.23631862  0.34077231  0.13171425     0.12000
H652        H  0.17338408  0.34248033  0.14279197     0.13200
H653        H  0.12230990  0.32893597  0.16534252     0.12200
H654        H  0.22210971  0.28222329  0.20383196     0.09300
H655        H  0.16385949  0.25737084  0.22371852     0.12600
H656        H  0.09668464  0.30419089  0.19326065     0.14500
C657        C  0.34197184  0.54751965  0.03567960    -0.01000
C658        C  0.30428082  0.50640873  0.03768252    -0.09100
C659        C  0.30470208  0.47418153  0.04749076    -0.17900
C660        C  0.34301413  0.48208215  0.05588345     0.04500
C661        C  0.38155736  0.52339187  0.05350371     0.18700
C662        C  0.38081699  0.55540272  0.04337676    -0.19300
C663        C  0.42032267  0.53290536  0.06157965    -0.20600
C664        C  0.42130556  0.50286351  0.07242923    -0.19100
C665        C  0.38361340  0.46240455  0.07542583     0.20100
C666        C  0.34410486  0.45106502  0.06693053     0.02200
C667        C  0.30701228  0.40969196  0.07028177    -0.13900
C668        C  0.30844701  0.38200675  0.08218977    -0.11600
C669        C  0.34682966  0.39402970  0.09096686     0.01700
C670        C  0.38470690  0.43377228  0.08728407    -0.23800
H671        H  0.27397384  0.49907161  0.03172193     0.09700
H672        H  0.27420818  0.44369816  0.04844875     0.13300
H673        H  0.41032953  0.58696329  0.04186385     0.12000
H674        H  0.44991686  0.56421487  0.05975839     0.13200
H675        H  0.45159372  0.51168062  0.07875432     0.12200
H676        H  0.27604624  0.39810669  0.06422857     0.09300
H677        H  0.27893192  0.35128665  0.08490435     0.12600
H678        H  0.41440002  0.44318317  0.09416525     0.14500
C679        C  0.05153798  0.65441368  0.09259021    -0.01000
C680        C  0.07904595  0.69342780  0.08418461    -0.09100
C681        C  0.11061320  0.69615306  0.07314307    -0.17900
C682        C  0.11615435  0.65976202  0.07030236     0.04500
C683        C  0.08681315  0.61962019  0.07834062     0.18700
C684        C  0.05480370  0.61726571  0.08934449    -0.19300
C685        C  0.09040516  0.58242740  0.07568867    -0.20600
C686        C  0.12270652  0.58423712  0.06533694    -0.19100
C687        C  0.15264537  0.62343365  0.05752161     0.20100
C688        C  0.15000552  0.66187488  0.05996251     0.02200
C689        C  0.18186338  0.70090042  0.05217638    -0.13900
C690        C  0.21442499  0.70151669  0.04222346    -0.11600
C691        C  0.21644464  0.66338297  0.03955749     0.01700
C692        C  0.18539713  0.62443236  0.04732995    -0.23800
H693        H  0.07686864  0.72244576  0.08657431     0.09700
H694        H  0.13059426  0.72741480  0.06725541     0.13300
H695        H  0.03373867  0.58712574  0.09595681     0.12000
H696        H  0.06818198  0.55172507  0.08173310     0.13200
H697        H  0.12456551  0.55481978  0.06356855     0.12200
H698        H  0.18276720  0.73164654  0.05360290     0.09300
H699        H  0.23797421  0.73213004  0.03646045     0.12600
H700        H  0.18674508  0.59474248  0.04550539     0.14500
C701        C  0.62053590  0.95289223  0.08791929    -0.01000
C702        C  0.58413764  0.95685953  0.08413086    -0.09100
C703        C  0.55243652  0.92800949  0.07299430    -0.17900
C704        C  0.55575704  0.89350045  0.06553830     0.04500
C705        C  0.59347316  0.89055695  0.06910309     0.18700
C706        C  0.62541754  0.92030588  0.08001474    -0.19300
C707        C  0.59855094  0.85710125  0.06217786    -0.20600
C708        C  0.56636512  0.82561017  0.05207820    -0.19100
C709        C  0.52833271  0.82683786  0.04861739     0.20100
C710        C  0.52262138  0.86107973  0.05508839     0.02200
C711        C  0.48357564  0.86069234  0.05108734    -0.13900
C712        C  0.45127503  0.82720199  0.04143110    -0.11600
C713        C  0.45668577  0.79301469  0.03539386     0.01700
C714        C  0.49565278  0.79347260  0.03890376    -0.23800
H715        H  0.57932369  0.98137535  0.09025021     0.09700
H716        H  0.52513415  0.93280389  0.07085795     0.13300
H717        H  0.65368676  0.91724229  0.08282649     0.12000
H718        H  0.62730553  0.85480275  0.06483377     0.13200
H719        H  0.57100129  0.79972939  0.04711847     0.12200
H720        H  0.47681810  0.88557330  0.05534427     0.09300
H721        H  0.42167975  0.82794128  0.03882322     0.12600
H722        H  0.50049596  0.76747771  0.03420625     0.14500
C723        C  0.34769061  0.39353815  0.40958762    -0.01000
C724        C  0.37073963  0.43743141  0.40473272    -0.09100
C725        C  0.37412749  0.47030768  0.41525287    -0.17900
C726        C  0.35366299  0.45997801  0.43095255     0.04500
C727        C  0.33219135  0.41539620  0.43611529     0.18700
C728        C  0.32943771  0.38266533  0.42542107    -0.19300
C729        C  0.31230329  0.40358791  0.45168168    -0.20600
C730        C  0.31217569  0.43488402  0.46209236    -0.19100
C731        C  0.33132526  0.47866982  0.45709621     0.20100
C732        C  0.35256388  0.49194953  0.44148366     0.02200
C733        C  0.37030822  0.53632040  0.43685108    -0.13900
C734        C  0.36607304  0.56582230  0.44707155    -0.11600
C735        C  0.34477756  0.55252869  0.46236945     0.01700
C736        C  0.32824724  0.50903426  0.46744530    -0.23800
H737        H  0.38508054  0.44614634  0.39249345     0.09700
H738        H  0.39215349  0.50330210  0.41057757     0.13300
H739        H  0.31145584  0.34851050  0.42910188     0.12000
H740        H  0.29615052  0.36976594  0.45574131     0.13200
H741        H  0.29600842  0.42454116  0.47398368     0.12200
H742        H  0.38678829  0.54911218  0.42524330     0.09300
H743        H  0.37954591  0.59933708  0.44292715     0.12600
H744        H  0.31160931  0.49837090  0.47924818     0.14500
C745        C  0.20902489  0.65487316  0.46062771    -0.01000
C746        C  0.20722622  0.64192032  0.44412581    -0.09100
C747        C  0.17416812  0.63776479  0.43360327    -0.17900
C748        C  0.14175391  0.64691607  0.43921111     0.04500
C749        C  0.14333249  0.65947359  0.45601457     0.18700
C750        C  0.17641870  0.66285116  0.46654059    -0.19300
C751        C  0.11254433  0.66970225  0.46212483    -0.20600
C752        C  0.08121017  0.66947896  0.45173797    -0.19100
C753        C  0.07943596  0.65833757  0.43504114     0.20100
C754        C  0.10884022  0.64560993  0.42863677     0.02200
C755        C  0.10475927  0.63334273  0.41180564    -0.13900
C756        C  0.07488742  0.63651073  0.40156682    -0.11600
C757        C  0.04790110  0.65162894  0.40770172     0.01700
C758        C  0.04945097  0.66135946  0.42455886    -0.23800
H759        H  0.23169688  0.63514210  0.43923472     0.09700
H760        H  0.17550006  0.62819973  0.42106631     0.13300
H761        H  0.17732436  0.67277709  0.47928976     0.12000
H762        H  0.11340364  0.67905433  0.47494484     0.13200
H763        H  0.05863322  0.67876469  0.45674609     0.12200
H764        H  0.12469226  0.62195855  0.40608093     0.09300
H765        H  0.07374485  0.62835387  0.38858981     0.12600
H766        H  0.02882139  0.67336838  0.42934666     0.14500
C767        C  0.44664122  0.79243047  0.46108207    -0.01000
C768        C  0.43727586  0.79111914  0.44419312    -0.09100
C769        C  0.46662770  0.82329049  0.43338574    -0.17900
C770        C  0.50698920  0.85824691  0.43905258     0.04500
C771        C  0.51633113  0.86000083  0.45621642     0.18700
C772        C  0.48613696  0.82747412  0.46704662    -0.19300
C773        C  0.55612276  0.89375029  0.46239215    -0.20600
C774        C  0.58738079  0.92504532  0.45182740    -0.19100
C775        C  0.57953335  0.92374358  0.43481693     0.20100
C776        C  0.53878848  0.89083817  0.42824545     0.02200
C777        C  0.53195440  0.89152610  0.41107208    -0.13900
C778        C  0.56472743  0.92220130  0.40081097    -0.11600
C779        C  0.60556075  0.95338486  0.40714583     0.01700
C780        C  0.61253604  0.95447347  0.42425934    -0.23800
H781        H  0.40704817  0.76474412  0.43918187     0.09700
H782        H  0.45691183  0.81933684  0.42060716     0.13300
H783        H  0.49386758  0.82900969  0.48007706     0.12000
H784        H  0.56347241  0.89551168  0.47546353     0.13200
H785        H  0.61813376  0.95019463  0.45698443     0.12200
H786        H  0.50180330  0.86855522  0.40510060     0.09300
H787        H  0.55836949  0.92104029  0.38766799     0.12600
H788        H  0.64412173  0.97819116  0.42928919     0.14500
C789        C  0.20774205  0.55079564  0.96429108    -0.01000
C790        C  0.17472814  0.51082949  0.97075659    -0.09100
C791        C  0.14131771  0.47992296  0.96061008    -0.17900
C792        C  0.13986274  0.48808012  0.94356130     0.04500
C793        C  0.17261423  0.52931102  0.93725304     0.18700
C794        C  0.20586889  0.55991463  0.94756000    -0.19300
C795        C  0.17266895  0.53962524  0.92057194    -0.20600
C796        C  0.14181213  0.50928988  0.90979736    -0.19100
C797        C  0.11017093  0.46783129  0.91541868     0.20100
C798        C  0.10802030  0.45667171  0.93242149     0.02200
C799        C  0.07499326  0.41415953  0.93731480    -0.13900
C800        C  0.04689659  0.38357352  0.92565217    -0.11600
C801        C  0.05050415  0.39458388  0.90886867     0.01700
C802        C  0.08153684  0.43701785  0.90394265    -0.23800
H803        H  0.17506909  0.50302816  0.98367647     0.09700
H804        H  0.11743523  0.44978117  0.96641131     0.13300
H805        H  0.23078029  0.59090293  0.94242116     0.12000
H806        H  0.19730661  0.57115397  0.91574147     0.13200
H807        H  0.14331827  0.51801152  0.89687488     0.12200
H808        H  0.07081437  0.40326076  0.94996835     0.09300
H809        H  0.02315172  0.35078929  0.92968516     0.12600
H810        H  0.08412836  0.44565222  0.89095899     0.14500
C811        C  0.34546748  0.94860021  0.90747312    -0.01000
C812        C  0.33986089  0.95354122  0.92434180    -0.09100
C813        C  0.34076227  0.92466880  0.93602282    -0.17900
C814        C  0.34651325  0.88938881  0.93105804     0.04500
C815        C  0.35349205  0.88571289  0.91395600     0.18700
C816        C  0.35354488  0.91540759  0.90252035    -0.19300
C817        C  0.35892584  0.85148688  0.90816985    -0.20600
C818        C  0.35671070  0.81999824  0.91894250    -0.19100
C819        C  0.34933489  0.82208784  0.93580832     0.20100
C820        C  0.34458251  0.85697384  0.94222792     0.02200
C821        C  0.33753021  0.85727815  0.95944861    -0.13900
C822        C  0.33494687  0.82413098  0.96973325    -0.11600
C823        C  0.33918013  0.78957953  0.96323297     0.01700
C824        C  0.34648834  0.78907861  0.94623403    -0.23800
H825        H  0.33308757  0.97871034  0.92843711     0.09700
H826        H  0.33554679  0.92991754  0.94875046     0.13300
H827        H  0.35811347  0.91160587  0.88948302     0.12000
H828        H  0.36420787  0.84860607  0.89513686     0.13200
H829        H  0.36049462  0.79357158  0.91400545     0.12200
H830        H  0.33385764  0.88265352  0.96530542     0.09300
H831        H  0.32946857  0.82554552  0.98283861     0.12600
H832        H  0.35009046  0.76279846  0.94101141     0.14500
C833        C  0.44859867  0.66025495  0.53496803    -0.01000
C834        C  0.43970569  0.62067612  0.54230429    -0.09100
C835        C  0.47038830  0.61865134  0.55250939    -0.17900
C836        C  0.51130136  0.65641500  0.55574966     0.04500
C837        C  0.52076544  0.69614225  0.54780225     0.18700
C838        C  0.48955437  0.69772338  0.53760951    -0.19300
C839        C  0.56113369  0.73429724  0.55023373    -0.20600
C840        C  0.59204890  0.73421350  0.56072667    -0.19100
C841        C  0.58318564  0.69609364  0.56917765     0.20100
C842        C  0.54286434  0.65646907  0.56676171     0.02200
C843        C  0.53552619  0.61912208  0.57586390    -0.13900
C844        C  0.56634525  0.62156698  0.58724527    -0.11600
C845        C  0.60548776  0.66098601  0.58976263     0.01700
C846        C  0.61400818  0.69782482  0.58044971    -0.23800
H847        H  0.40857617  0.59105201  0.54032602     0.09700
H848        H  0.46098580  0.58708494  0.55773205     0.13300
H849        H  0.49714021  0.72843408  0.53183190     0.12000
H850        H  0.56868555  0.76457993  0.54411063     0.13200
H851        H  0.62280036  0.76445302  0.56250440     0.12200
H852        H  0.50581798  0.58790685  0.57483128     0.09300
H853        H  0.55890917  0.59292265  0.59452243     0.12600
H854        H  0.64435542  0.72841801  0.58240185     0.14500
C855        C  0.60602165  0.65374223  0.90899448    -0.01000
C856        C  0.61822579  0.66709357  0.92536321    -0.09100
C857        C  0.58782478  0.66571475  0.93676204    -0.17900
C858        C  0.54415486  0.65132702  0.93200931     0.04500
C859        C  0.53173088  0.63621861  0.91551180     0.18700
C860        C  0.56250483  0.63732540  0.90427684    -0.19300
C861        C  0.48907291  0.62163544  0.91010528    -0.20600
C862        C  0.45880844  0.62351910  0.92050315    -0.19100
C863        C  0.47031445  0.63964421  0.93662456     0.20100
C864        C  0.51279657  0.65278000  0.94277717     0.02200
C865        C  0.52220436  0.66768686  0.95930801    -0.13900
C866        C  0.49122958  0.67060078  0.96909731    -0.11600
C867        C  0.44991041  0.65900484  0.96280086     0.01700
C868        C  0.43961547  0.64315671  0.94656614    -0.23800
H869        H  0.65185076  0.68020986  0.92919190     0.09700
H870        H  0.59987003  0.67739893  0.94903053     0.13300
H871        H  0.55301548  0.62681723  0.89160092     0.12000
H872        H  0.47934591  0.60972165  0.89758947     0.13200
H873        H  0.42633071  0.61290737  0.91580610     0.12200
H874        H  0.55325183  0.67753014  0.96502905     0.09300
H875        H  0.49997697  0.68255314  0.98164861     0.12600
H876        H  0.40753235  0.63339759  0.94163413     0.14500
C877        C  0.33684812  0.94980893  0.58925451    -0.01000
C878        C  0.37693421  0.95236894  0.58611391    -0.09100
C879        C  0.37927609  0.92235531  0.57541967    -0.17900
C880        C  0.34120747  0.88841416  0.56773285     0.04500
C881        C  0.30097579  0.88705966  0.57069515     0.18700
C882        C  0.29933984  0.91775971  0.58117159    -0.19300
C883        C  0.26219510  0.85432384  0.56357396    -0.20600
C884        C  0.26220766  0.82228412  0.55366312    -0.19100
C885        C  0.30104867  0.82231405  0.55053547     0.20100
C886        C  0.34121731  0.85538605  0.55744471     0.02200
C887        C  0.37935589  0.85357441  0.55382337    -0.13900
C888        C  0.37760887  0.82061117  0.54367605    -0.11600
C889        C  0.33791275  0.78827579  0.53682443     0.01700
C890        C  0.29976247  0.78932995  0.54045120    -0.23800
H891        H  0.40623488  0.97664947  0.59238125     0.09700
H892        H  0.41107837  0.92589025  0.57373097     0.13300
H893        H  0.26826287  0.91584244  0.58355353     0.12000
H894        H  0.23147278  0.85319753  0.56583571     0.13200
H895        H  0.23152871  0.79720021  0.54842691     0.12200
H896        H  0.41102619  0.87721909  0.55860142     0.09300
H897        H  0.40763395  0.82058512  0.54115881     0.12600
H898        H  0.26880227  0.76452933  0.53529562     0.14500
C899        C  0.20403162  0.54785417  0.53423861    -0.01000
C900        C  0.17471141  0.55706382  0.54250639    -0.09100
C901        C  0.14132181  0.52547415  0.55247973    -0.17900
C902        C  0.13605176  0.48329728  0.55449484     0.04500
C903        C  0.16493478  0.47372358  0.54559672     0.18700
C904        C  0.19832284  0.50576584  0.53566755    -0.19300
C905        C  0.16102358  0.43244262  0.54690157    -0.20600
C906        C  0.13019013  0.40086852  0.55738154    -0.19100
C907        C  0.10241638  0.40972060  0.56681675     0.20100
C908        C  0.10413045  0.45065592  0.56530061     0.02200
C909        C  0.07473312  0.45737270  0.57506133    -0.13900
C910        C  0.04656129  0.42564101  0.58639674    -0.11600
C911        C  0.04657805  0.38627562  0.58826032     0.01700
C912        C  0.07388455  0.37821687  0.57817175    -0.23800
H913        H  0.17804789  0.58917066  0.54152256     0.09700
H914        H  0.12053484  0.53521964  0.55861637     0.13300
H915        H  0.22028760  0.49793251  0.52914427     0.12000
H916        H  0.18261388  0.42479601  0.54001424     0.13200
H917        H  0.12869817  0.36956504  0.55837837     0.12200
H918        H  0.07351485  0.48719475  0.57450879     0.09300
H919        H  0.02576677  0.43251083  0.59415205     0.12600
H920        H  0.07375441  0.34762750  0.57955187     0.14500
C921        C  0.88762931  0.74596924  0.79330420    -0.01000
C922        C  0.89348894  0.77917079  0.80418099    -0.09100
C923        C  0.86528155  0.77008203  0.81752357    -0.17900
C924        C  0.83041273  0.72701911  0.82047464     0.04500
C925        C  0.82451266  0.69347090  0.80920994     0.18700
C926        C  0.85296188  0.70327579  0.79570953    -0.19300
C927        C  0.79054024  0.65034142  0.81157301    -0.20600
C928        C  0.76229449  0.63963284  0.82495902    -0.19100
C929        C  0.76725092  0.67182240  0.83626861     0.20100
C930        C  0.80132176  0.71604828  0.83419064     0.02200
C931        C  0.80459325  0.74737848  0.84589723    -0.13900
C932        C  0.77445379  0.73551520  0.85874675    -0.11600
C933        C  0.74038232  0.69225450  0.86037885     0.01700
C934        C  0.73762495  0.66025147  0.84945305    -0.23800
H935        H  0.92025511  0.81234633  0.80234321     0.09700
H936        H  0.87196288  0.79744320  0.82533964     0.13300
H937        H  0.84868300  0.67767123  0.78719607     0.12000
H938        H  0.78585182  0.62467361  0.80302896     0.13200
H939        H  0.73624680  0.60594478  0.82643629     0.12200
H940        H  0.82944073  0.78146988  0.84531269     0.09300
H941        H  0.77678007  0.76051064  0.86714794     0.12600
H942        H  0.71089795  0.62677391  0.85072139     0.14500
C943        C  0.26187320  0.94280289  0.85752751    -0.01000
C944        C  0.22045107  0.93808822  0.85916231    -0.09100
C945        C  0.18878052  0.91687654  0.84698566    -0.17900
C946        C  0.19752854  0.89906311  0.83280800     0.04500
C947        C  0.23858370  0.90105119  0.83184705     0.18700
C948        C  0.27055299  0.92336007  0.84407460    -0.19300
C949        C  0.24747397  0.88108019  0.81862716    -0.20600
C950        C  0.21644193  0.85919406  0.80632075    -0.19100
C951        C  0.17647806  0.85833108  0.80654799     0.20100
C952        C  0.16694236  0.87919802  0.81961459     0.02200
C953        C  0.12782115  0.88052522  0.81865651    -0.13900
C954        C  0.09923524  0.86154867  0.80540503    -0.11600
C955        C  0.10777729  0.83955179  0.79283278     0.01700
C956        C  0.14629936  0.83751615  0.79362209    -0.23800
H957        H  0.21288130  0.95173565  0.86979734     0.09700
H958        H  0.15764479  0.91457511  0.84909826     0.13300
H959        H  0.30244678  0.92630394  0.84301166     0.12000
H960        H  0.27852872  0.88211915  0.81786221     0.13200
H961        H  0.22419028  0.84374236  0.79633969     0.12200
H962        H  0.11905176  0.89724439  0.82767619     0.09300
H963        H  0.07006924  0.86416683  0.80493287     0.12600
H964        H  0.15315337  0.82046470  0.78398518     0.14500
C965        C  0.10704461  0.84312008  0.70524401    -0.01000
C966        C  0.11264525  0.81708622  0.69348655    -0.09100
C967        C  0.14147179  0.83635721  0.68020589    -0.17900
C968        C  0.16901532  0.88223872  0.67940678     0.04500
C969        C  0.16728616  0.90795753  0.69252703     0.18700
C970        C  0.13407221  0.88880552  0.70439669    -0.19300
C971        C  0.19957871  0.95217013  0.69396550    -0.20600
C972        C  0.23419401  0.97073832  0.68280228    -0.19100
C973        C  0.23406091  0.94704362  0.66889157     0.20100
C974        C  0.19965624  0.90347868  0.66644315     0.02200
C975        C  0.19609436  0.88395502  0.65087332    -0.13900
C976        C  0.22506343  0.90783993  0.63808177    -0.11600
C977        C  0.26092477  0.95018461  0.64090232     0.01700
C978        C  0.26687046  0.96740093  0.65697412    -0.23800
H979        H  0.09420801  0.78170536  0.69444191     0.09700
H980        H  0.14375544  0.81489150  0.67124012     0.13300
H981        H  0.13071403  0.90929222  0.71358910     0.12000
H982        H  0.19910752  0.97185946  0.70416022     0.13200
H983        H  0.25974970  0.00454913  0.68451185     0.12200
H984        H  0.16913164  0.85168560  0.64799165     0.09300
H985        H  0.21874202  0.89316322  0.62591186     0.12600
H986        H  0.29576025  0.99809609  0.66006305     0.14500
C987        C  0.88115267  0.74875483  0.70737034    -0.01000
C988        C  0.84027233  0.71065666  0.70933458    -0.09100
C989        C  0.80818621  0.69731636  0.69711613    -0.17900
C990        C  0.81666018  0.72085040  0.68214558     0.04500
C991        C  0.85861843  0.75873142  0.68002711     0.18700
C992        C  0.88951672  0.77321645  0.69281936    -0.19300
C993        C  0.86999253  0.78130162  0.66498482    -0.20600
C994        C  0.84087404  0.76651379  0.65182977    -0.19100
C995        C  0.79885387  0.73023608  0.65369217     0.20100
C996        C  0.78550738  0.70771453  0.66904602     0.02200
C997        C  0.74137999  0.67375651  0.67066837    -0.13900
C998        C  0.71170489  0.66360635  0.65768699    -0.11600
C999        C  0.72553263  0.68575833  0.64261877     0.01700
C1000       C  0.76953254  0.71735734  0.64042753    -0.23800
H1001       H  0.83327972  0.69076327  0.72033610     0.09700
H1002       H  0.77773088  0.66750577  0.69943827     0.13300
H1003       H  0.92099319  0.80278108  0.69120640     0.12000
H1004       H  0.90204275  0.80998290  0.66324826     0.13200
H1005       H  0.85092465  0.78423804  0.64023315     0.12200
H1006       H  0.72845841  0.65594514  0.68204378     0.09300
H1007       H  0.67767237  0.63897419  0.65949929     0.12600
H1008       H  0.78022754  0.73395694  0.62861872     0.14500
C1009       C  0.05099672  0.31209477  0.85934903    -0.01000
C1010       C  0.04485305  0.26981680  0.85899336    -0.09100
C1011       C  0.06396248  0.25743836  0.84663937    -0.17900
C1012       C  0.08975201  0.28713670  0.83406831     0.04500
C1013       C  0.09687561  0.33050145  0.83478415     0.18700
C1014       C  0.07810501  0.34276545  0.84753049    -0.19300
C1015       C  0.12164550  0.36095557  0.82252150    -0.20600
C1016       C  0.13917174  0.34920517  0.80942708    -0.19100
C1017       C  0.13262609  0.30678051  0.80831506     0.20100
C1018       C  0.10809364  0.27518258  0.82069327     0.02200
C1019       C  0.10276974  0.23289629  0.81906831    -0.13900
C1020       C  0.12084128  0.22247815  0.80573077    -0.11600
C1021       C  0.14475871  0.25360438  0.79357690     0.01700
C1022       C  0.15053880  0.29571898  0.79489507    -0.23800
H1023       H  0.02399380  0.24581771  0.86808789     0.09700
H1024       H  0.05701435  0.22408738  0.84709121     0.13300
H1025       H  0.08258406  0.37546206  0.84777085     0.12000
H1026       H  0.12710476  0.39399734  0.82296017     0.13200
H1027       H  0.15790483  0.37347140  0.80007035     0.12200
H1028       H  0.08495835  0.20710008  0.82789455     0.09300
H1029       H  0.11620099  0.18979805  0.80488164     0.12600
H1030       H  0.16935492  0.31992669  0.78552067     0.14500
C1031       C  0.30769091  0.03867919  0.85618673    -0.01000
C1032       C  0.27151790  0.04399824  0.85824118    -0.09100
C1033       C  0.25924446  0.06288753  0.84582116    -0.17900
C1034       C  0.28357915  0.07796144  0.83098779     0.04500
C1035       C  0.32149315  0.07412310  0.82928276     0.18700
C1036       C  0.33279848  0.05393082  0.84175588    -0.19300
C1037       C  0.34799267  0.09082635  0.81522846    -0.20600
C1038       C  0.33811479  0.11206089  0.80296284    -0.19100
C1039       C  0.30062158  0.11569250  0.80415926     0.20100
C1040       C  0.27215043  0.09754036  0.81797078     0.02200
C1041       C  0.23319152  0.09934545  0.81807725    -0.13900
C1042       C  0.22357682  0.11941814  0.80526898    -0.11600
C1043       C  0.25257612  0.13904512  0.79204922     0.01700
C1044       C  0.29117384  0.13710498  0.79157720    -0.23800
H1045       H  0.25234623  0.03299228  0.86949418     0.09700
H1046       H  0.23107989  0.06600806  0.84836144     0.13300
H1047       H  0.36112226  0.05009294  0.84029229     0.12000
H1048       H  0.37698609  0.08813335  0.81385065     0.13200
H1049       H  0.35971702  0.12534602  0.79238272     0.12200
H1050       H  0.20898664  0.08474369  0.82770549     0.09300
H1051       H  0.19312102  0.11965020  0.80568038     0.12600
H1052       H  0.31365217  0.15198841  0.78131651     0.14500
C1053       C  0.30252699  0.04979716  0.63753613    -0.01000
C1054       C  0.33692352  0.08291182  0.64664176    -0.09100
C1055       C  0.32869735  0.10375838  0.65959871    -0.17900
C1056       C  0.28544351  0.09172440  0.66401179     0.04500
C1057       C  0.25075997  0.06000458  0.65405414     0.18700
C1058       C  0.25962985  0.04000242  0.64075643    -0.19300
C1059       C  0.20738622  0.04740084  0.65776423    -0.20600
C1060       C  0.19762534  0.06565186  0.67116416    -0.19100
C1061       C  0.23095652  0.09651762  0.68130265     0.20100
C1062       C  0.27536844  0.10969023  0.67801503     0.02200
C1063       C  0.30763231  0.13975316  0.68905309    -0.13900
C1064       C  0.29625963  0.15673414  0.70250838    -0.11600
C1065       C  0.25267503  0.14448728  0.70530152     0.01700
C1066       C  0.22012921  0.11429684  0.69476593    -0.23800
H1067       H  0.37034903  0.09125268  0.64423837     0.09700
H1068       H  0.35689357  0.12846323  0.66612504     0.13300
H1069       H  0.23300016  0.01480897  0.63354392     0.12000
H1070       H  0.18079808  0.02309116  0.65029429     0.13200
H1071       H  0.16370949  0.05528549  0.67369622     0.12200
H1072       H  0.34186995  0.15064860  0.68770527     0.09300
H1073       H  0.32161050  0.17995365  0.71067826     0.12600
H1074       H  0.18629881  0.10471375  0.69711145     0.14500
C1075       C  0.05042678  0.31314599  0.63986734    -0.01000
C1076       C  0.05847614  0.33628732  0.65470566    -0.09100
C1077       C  0.07920423  0.32840055  0.66782340    -0.17900
C1078       C  0.09090872  0.29568381  0.66661708     0.04500
C1079       C  0.08210102  0.27209252  0.65149204     0.18700
C1080       C  0.06407274  0.28255301  0.63805431    -0.19300
C1081       C  0.08936471  0.23682506  0.65011955    -0.20600
C1082       C  0.10392852  0.22354025  0.66362843    -0.19100
C1083       C  0.11395778  0.24675550  0.67853532     0.20100
C1084       C  0.10938531  0.28428392  0.68004624     0.02200
C1085       C  0.12394123  0.30889263  0.69484579    -0.13900
C1086       C  0.14172889  0.29626413  0.70765429    -0.11600
C1087       C  0.14393716  0.25784812  0.70643955     0.01700
C1088       C  0.12921457  0.23295934  0.69187700    -0.23800
H1089       H  0.04778107  0.35989124  0.65625062     0.09700
H1090       H  0.08357488  0.34672578  0.67902685     0.13300
H1091       H  0.05745360  0.26449169  0.62654895     0.12000
H1092       H  0.08229228  0.21843565  0.63869032     0.13200
H1093       H  0.10801908  0.19528976  0.66232856     0.12200
H1094       H  0.12340797  0.33886155  0.69661445     0.09300
H1095       H  0.15405265  0.31678165  0.71854629     0.12600
H1096       H  0.13081570  0.20321877  0.69076442     0.14500
C1097       C  0.95367191  0.26745761  0.85744607    -0.01000
C1098       C  0.91775386  0.22642248  0.86144512    -0.09100
C1099       C  0.89513085  0.19528601  0.84916547    -0.17900
C1100       C  0.90883187  0.20375500  0.83248268     0.04500
C1101       C  0.94586317  0.24501175  0.82857383     0.18700
C1102       C  0.96612780  0.27707373  0.84082658    -0.19300
C1103       C  0.96339219  0.25351922  0.81258867    -0.20600
C1104       C  0.94552443  0.22130610  0.80046986    -0.19100
C1105       C  0.90806229  0.18094005  0.80378055     0.20100
C1106       C  0.88804240  0.17231689  0.81962925     0.02200
C1107       C  0.84782078  0.13294741  0.82183464    -0.13900
C1108       C  0.82882903  0.10307670  0.80888423    -0.11600
C1109       C  0.84996999  0.11062435  0.79356221     0.01700
C1110       C  0.89008878  0.14933524  0.79124100    -0.23800
H1111       H  0.90764817  0.21797795  0.87419727     0.09700
H1112       H  0.86841426  0.16413386  0.85319407     0.13300
H1113       H  0.99276407  0.30919991  0.83747262     0.12000
H1114       H  0.99203190  0.28473429  0.80960272     0.13200
H1115       H  0.96057918  0.22832476  0.78833475     0.12200
H1116       H  0.82962791  0.12510276  0.83324755     0.09300
H1117       H  0.79747378  0.07368427  0.81085607     0.12600
H1118       H  0.90685728  0.15529979  0.77947094     0.14500
C1119       C  0.68132884  0.72892249  0.85686173    -0.01000
C1120       C  0.68353929  0.76886264  0.86030848    -0.09100
C1121       C  0.69250821  0.79955835  0.84779331    -0.17900
C1122       C  0.70102589  0.79183971  0.83140402     0.04500
C1123       C  0.69938565  0.75160229  0.82802792     0.18700
C1124       C  0.68711854  0.71978983  0.84045178    -0.19300
C1125       C  0.71147481  0.74395698  0.81243440    -0.20600
C1126       C  0.72580955  0.77581404  0.80015542    -0.19100
C1127       C  0.72609487  0.81509470  0.80286284     0.20100
C1128       C  0.71226604  0.82300368  0.81835656     0.02200
C1129       C  0.70973218  0.86145463  0.82003195    -0.13900
C1130       C  0.72134502  0.89117640  0.80699890    -0.11600
C1131       C  0.73709214  0.88447577  0.79201228     0.01700
C1132       C  0.73976176  0.84639804  0.79011879    -0.23800
H1133       H  0.67955404  0.77697541  0.87286479     0.09700
H1134       H  0.69464572  0.82990517  0.85147414     0.13300
H1135       H  0.68393560  0.68845294  0.83745769     0.12000
H1136       H  0.71108483  0.71364550  0.80987651     0.13200
H1137       H  0.73598755  0.76934348  0.78835520     0.12200
H1138       H  0.69780370  0.86886349  0.83112697     0.09300
H1139       H  0.71841545  0.92000444  0.80868187     0.12600
H1140       H  0.75217608  0.84096996  0.77863999     0.14500
C1141       C  0.84614820  0.11820197  0.70823720    -0.01000
C1142       C  0.88268723  0.11948374  0.70096191    -0.09100
C1143       C  0.90455674  0.14764712  0.68783938    -0.17900
C1144       C  0.89125962  0.17659642  0.68185531     0.04500
C1145       C  0.85681400  0.17819284  0.69026983     0.18700
C1146       C  0.83365140  0.14810833  0.70301225    -0.19300
C1147       C  0.84576851  0.20967444  0.68582082    -0.20600
C1148       C  0.86841993  0.23968569  0.67325133    -0.19100
C1149       C  0.90090093  0.23729195  0.66419275     0.20100
C1150       C  0.91149536  0.20452170  0.66798774     0.02200
C1151       C  0.94060225  0.19992725  0.65735580    -0.13900
C1152       C  0.96019296  0.22833303  0.64406915    -0.11600
C1153       C  0.95337625  0.26357109  0.64140320     0.01700
C1154       C  0.92265720  0.26713593  0.65125539    -0.23800
H1155       H  0.89334585  0.09723943  0.70510942     0.09700
H1156       H  0.93223925  0.14663720  0.68278907     0.13300
H1157       H  0.80572141  0.14761813  0.70874376     0.12000
H1158       H  0.81996251  0.21157977  0.69229051     0.13200
H1159       H  0.85974977  0.26425328  0.67033324     0.12200
H1160       H  0.94753108  0.17366214  0.65865507     0.09300
H1161       H  0.98063100  0.22248472  0.63575825     0.12600
H1162       H  0.91580853  0.29325749  0.64886873     0.14500
C1163       C  0.68455133  0.74095204  0.64016517    -0.01000
C1164       C  0.72714315  0.77613778  0.64208886    -0.09100
C1165       C  0.73732321  0.80625820  0.65483098    -0.17900
C1166       C  0.70436745  0.80345126  0.66546500     0.04500
C1167       C  0.66029789  0.77136271  0.66199851     0.18700
C1168       C  0.65085865  0.73967497  0.64970687    -0.19300
C1169       C  0.62620758  0.77121859  0.67084908    -0.20600
C1170       C  0.63515871  0.80225206  0.68315240    -0.19100
C1171       C  0.67839796  0.83227719  0.68757198     0.20100
C1172       C  0.71356842  0.83215416  0.67913004     0.02200
C1173       C  0.75643762  0.85965350  0.68505419    -0.13900
C1174       C  0.76416864  0.88748667  0.69840251    -0.11600
C1175       C  0.72977822  0.88977390  0.70592444     0.01700
C1176       C  0.68687469  0.86209244  0.70051222    -0.23800
H1177       H  0.75279638  0.78036301  0.63372938     0.09700
H1178       H  0.77095173  0.83222657  0.65575956     0.13300
H1179       H  0.61741340  0.71373377  0.64765946     0.12000
H1180       H  0.59244361  0.74738630  0.66807589     0.13200
H1181       H  0.60812428  0.80189599  0.68959038     0.12200
H1182       H  0.78440723  0.85935132  0.67991415     0.09300
H1183       H  0.79741718  0.90825976  0.70268340     0.12600
H1184       H  0.66022162  0.86352983  0.70650680     0.14500
C1185       C  0.79088516  0.34807574  0.53891263    -0.01000
C1186       C  0.79254856  0.36021242  0.55550840    -0.09100
C1187       C  0.82451855  0.36223199  0.56611077    -0.17900
C1188       C  0.85593560  0.35167210  0.56049100     0.04500
C1189       C  0.85472656  0.34025350  0.54356124     0.18700
C1190       C  0.82263179  0.33886314  0.53296772    -0.19300
C1191       C  0.88499515  0.32939765  0.53737055    -0.20600
C1192       C  0.91581085  0.32848623  0.54773221    -0.19100
C1193       C  0.91724067  0.33854947  0.56453914     0.20100
C1194       C  0.88775287  0.35096387  0.57112281     0.02200
C1195       C  0.89069489  0.36102975  0.58816203    -0.13900
C1196       C  0.92028217  0.35713271  0.59830562    -0.11600
C1197       C  0.94824664  0.34360387  0.59187816     0.01700
C1198       C  0.94718999  0.33509982  0.57492046    -0.23800
H1199       H  0.76876893  0.36796385  0.56041463     0.09700
H1200       H  0.82327426  0.37158696  0.57868455     0.13300
H1201       H  0.82178450  0.32952464  0.52014125     0.12000
H1202       H  0.88438216  0.32084473  0.52446257     0.13200
H1203       H  0.93828617  0.31921689  0.54260671     0.12200
H1204       H  0.87011877  0.37126122  0.59412925     0.09300
H1205       H  0.92086216  0.36403370  0.61138920     0.12600
H1206       H  0.96855897  0.32421125  0.56993861     0.14500
C1207       C  0.66630440  0.21352776  0.46497204    -0.01000
C1208       C  0.70524303  0.21319796  0.46228735    -0.09100
C1209       C  0.70592279  0.18092083  0.45251994    -0.17900
C1210       C  0.66743841  0.14765910  0.44491648     0.04500
C1211       C  0.62787820  0.14774472  0.44779073     0.18700
C1212       C  0.62760052  0.18027255  0.45778822    -0.19300
C1213       C  0.58891129  0.11574561  0.44046088    -0.20600
C1214       C  0.58853029  0.08432891  0.42994982    -0.19100
C1215       C  0.62705589  0.08389155  0.42655146     0.20100
C1216       C  0.66694767  0.11503100  0.43425485     0.02200
C1217       C  0.70480481  0.11278578  0.43061098    -0.13900
C1218       C  0.70355748  0.08266515  0.41915491    -0.11600
C1219       C  0.66472675  0.05351185  0.41098398     0.01700
C1220       C  0.62625974  0.05348881  0.41504280    -0.23800
H1221       H  0.73560122  0.23816950  0.46774346     0.09700
H1222       H  0.73726484  0.18330220  0.45102389     0.13300
H1223       H  0.59719126  0.18001134  0.45975965     0.12000
H1224       H  0.55857446  0.11545067  0.44265368     0.13200
H1225       H  0.55795721  0.06058809  0.42423542     0.12200
H1226       H  0.73613913  0.13444162  0.43611321     0.09300
H1227       H  0.73361472  0.08305366  0.41621863     0.12600
H1228       H  0.59619249  0.03125616  0.40865458     0.14500
C1229       C  0.55399047  0.21199956  0.53874363    -0.01000
C1230       C  0.56389978  0.21117535  0.55545837    -0.09100
C1231       C  0.53404631  0.17848520  0.56600129    -0.17900
C1232       C  0.49277643  0.14542675  0.56018069     0.04500
C1233       C  0.48324025  0.14583929  0.54314142     0.18700
C1234       C  0.51375439  0.17878258  0.53264050    -0.19300
C1235       C  0.44300563  0.11374958  0.53670559    -0.20600
C1236       C  0.41148175  0.08170808  0.54689726    -0.19100
C1237       C  0.41930743  0.08102345  0.56380021     0.20100
C1238       C  0.46029553  0.11258040  0.57067757     0.02200
C1239       C  0.46642607  0.11061715  0.58784773    -0.13900
C1240       C  0.43272493  0.07994295  0.59779585    -0.11600
C1241       C  0.39207013  0.04991088  0.59103214     0.01700
C1242       C  0.38577725  0.04990240  0.57398011    -0.23800
H1243       H  0.59493806  0.23608338  0.56048905     0.09700
H1244       H  0.54419616  0.18030162  0.57865789     0.13300
H1245       H  0.50574045  0.17894450  0.51972351     0.12000
H1246       H  0.43561978  0.11375863  0.52371252     0.13200
H1247       H  0.38042627  0.05773580  0.54156334     0.12200
H1248       H  0.49641189  0.13298010  0.59406423     0.09300
H1249       H  0.43798864  0.08040373  0.61100582     0.12600
H1250       H  0.35409750  0.02701815  0.56877505     0.14500
C1251       C  0.79142997  0.45785873  0.46553817    -0.01000
C1252       C  0.79528133  0.49920034  0.46442655    -0.09100
C1253       C  0.82793167  0.53230493  0.45480394    -0.17900
C1254       C  0.85784244  0.52506256  0.44569727     0.04500
C1255       C  0.85418433  0.48321566  0.44695829     0.18700
C1256       C  0.82154959  0.45035259  0.45695041    -0.19300
C1257       C  0.88246768  0.47410139  0.43793742    -0.20600
C1258       C  0.91341137  0.50517138  0.42725838    -0.19100
C1259       C  0.91725721  0.54636404  0.42547889     0.20100
C1260       C  0.89025344  0.55730556  0.43498724     0.02200
C1261       C  0.89615390  0.59971269  0.43303500    -0.13900
C1262       C  0.92556045  0.62886114  0.42143318    -0.11600
C1263       C  0.95051746  0.61719241  0.41153692     0.01700
C1264       C  0.94704742  0.57627606  0.41388783    -0.23800
H1265       H  0.77279884  0.50611253  0.47102704     0.09700
H1266       H  0.82827064  0.56292898  0.45453202     0.13300
H1267       H  0.81894433  0.41849314  0.45769278     0.12000
H1268       H  0.88000918  0.44234807  0.43887320     0.13200
H1269       H  0.93408691  0.49669234  0.42016632     0.12200
H1270       H  0.87808493  0.61119879  0.44008068     0.09300
H1271       H  0.92827928  0.66060305  0.41993446     0.12600
H1272       H  0.96628431  0.56708556  0.40621963     0.14500
C1273       C  0.54852291  0.33679225  0.46351572    -0.01000
C1274       C  0.50705965  0.29921198  0.46228445    -0.09100
C1275       C  0.47464613  0.29879870  0.45236428    -0.17900
C1276       C  0.48272852  0.33609680  0.44310567     0.04500
C1277       C  0.52499604  0.37400965  0.44420371     0.18700
C1278       C  0.55711778  0.37420896  0.45447831    -0.19300
C1279       C  0.53516514  0.41130916  0.43486210    -0.20600
C1280       C  0.50446879  0.41159270  0.42422801    -0.19100
C1281       C  0.46254046  0.37484850  0.42286382     0.20100
C1282       C  0.45078466  0.33681415  0.43252485     0.02200
C1283       C  0.40769497  0.30094864  0.43100417    -0.13900
C1284       C  0.37845279  0.30195949  0.41976327    -0.11600
C1285       C  0.39075757  0.33872151  0.40984863     0.01700
C1286       C  0.43251057  0.37548495  0.41163678    -0.23800
H1287       H  0.49942694  0.26985187  0.46911288     0.09700
H1288       H  0.44380750  0.26851594  0.45205185     0.13300
H1289       H  0.58916934  0.40341151  0.45521025     0.12000
H1290       H  0.56735018  0.44029904  0.43560152     0.13200
H1291       H  0.51366313  0.44072608  0.41696349     0.12200
H1292       H  0.39567248  0.27141305  0.43817039     0.09300
H1293       H  0.34612034  0.27338908  0.41853237     0.12600
H1294       H  0.44202266  0.40392472  0.40389229     0.14500
C1295       C  0.65153759  0.44823180  0.53834060    -0.01000
C1296       C  0.63581188  0.43536462  0.55447953    -0.09100
C1297       C  0.63131251  0.46375655  0.56522325    -0.17900
C1298       C  0.64299631  0.50664555  0.56026532     0.04500
C1299       C  0.65838436  0.51948791  0.54380981     0.18700
C1300       C  0.66200507  0.49018184  0.53299262    -0.19300
C1301       C  0.67108850  0.56187144  0.53837943    -0.20600
C1302       C  0.67008990  0.59224552  0.54907185    -0.19100
C1303       C  0.65593977  0.58090972  0.56542916     0.20100
C1304       C  0.64128275  0.53764272  0.57118054     0.02200
C1305       C  0.62669949  0.52770938  0.58775184    -0.13900
C1306       C  0.62908666  0.55998533  0.59836900    -0.11600
C1307       C  0.64531469  0.60292001  0.59283074     0.01700
C1308       C  0.65768458  0.61299069  0.57624117    -0.23800
H1309       H  0.62702251  0.40303579  0.55891761     0.09700
H1310       H  0.61935129  0.45131680  0.57742919     0.13300
H1311       H  0.67422840  0.50055700  0.52054304     0.12000
H1312       H  0.68274863  0.57190557  0.52585532     0.13200
H1313       H  0.68107592  0.62506411  0.54457486     0.12200
H1314       H  0.61409208  0.49557252  0.59300908     0.09300
H1315       H  0.61910469  0.55163693  0.61114318     0.12600
H1316       H  0.67052375  0.64633863  0.57195706     0.14500
C1317       C  0.39115069  0.04883362  0.90684825    -0.01000
C1318       C  0.42903003  0.04699750  0.91006811    -0.09100
C1319       C  0.46109379  0.07705039  0.92089665    -0.17900
C1320       C  0.45622072  0.11014971  0.92883103     0.04500
C1321       C  0.41711191  0.11095754  0.92576414     0.18700
C1322       C  0.38535593  0.08067202  0.91488883    -0.19300
C1323       C  0.41001018  0.14237143  0.93339311    -0.20600
C1324       C  0.44111581  0.17350850  0.94391650    -0.19100
C1325       C  0.48035921  0.17434173  0.94699652     0.20100
C1326       C  0.48862003  0.14270587  0.93955220     0.02200
C1327       C  0.52910529  0.14555122  0.94305472    -0.13900
C1328       C  0.55987940  0.17838651  0.95345100    -0.11600
C1329       C  0.55154599  0.20957241  0.96072694     0.01700
C1330       C  0.51149770  0.20703922  0.95742213    -0.23800
H1331       H  0.43435487  0.02290483  0.90386257     0.09700
H1332       H  0.48950730  0.07387368  0.92267758     0.13300
H1333       H  0.35600611  0.08213448  0.91247879     0.12000
H1334       H  0.38018945  0.14301385  0.93113944     0.13200
H1335       H  0.43457406  0.19743947  0.94957426     0.12200
H1336       H  0.53803672  0.12304720  0.93786181     0.09300
H1337       H  0.59050792  0.17942936  0.95572523     0.12600
H1338       H  0.50442752  0.23073800  0.96296443     0.14500
C1339       C  0.39944227  0.34741756  0.09284601    -0.01000
C1340       C  0.44143830  0.35975964  0.09842218    -0.09100
C1341       C  0.47244888  0.35965961  0.08783953    -0.17900
C1342       C  0.46238092  0.34662187  0.07114263     0.04500
C1343       C  0.42029985  0.33594905  0.06525021     0.18700
C1344       C  0.38919991  0.33639796  0.07611930    -0.19300
C1345       C  0.40938191  0.32400684  0.04866071    -0.20600
C1346       C  0.43912019  0.32198021  0.03786944    -0.19100
C1347       C  0.48040162  0.33122382  0.04341359     0.20100
C1348       C  0.49245289  0.34343256  0.06017665     0.02200
C1349       C  0.53383891  0.35112849  0.06534507    -0.13900
C1350       C  0.56220625  0.34745262  0.05436466    -0.11600
C1351       C  0.55085486  0.33617368  0.03775535     0.01700
C1352       C  0.50965786  0.32804459  0.03235936    -0.23800
H1353       H  0.45002472  0.36867004  0.11126455     0.09700
H1354       H  0.50386982  0.36956713  0.09321348     0.13300
H1355       H  0.35663434  0.32664515  0.07174000     0.12000
H1356       H  0.37752627  0.31599495  0.04400595     0.13200
H1357       H  0.42954017  0.31259036  0.02512816     0.12200
H1358       H  0.54528363  0.35965412  0.07786791     0.09300
H1359       H  0.59354937  0.35380549  0.05898917     0.12600
H1360       H  0.50018017  0.31894528  0.01958784     0.14500
C1361       C  0.79206682  0.34096673  0.96276217    -0.01000
C1362       C  0.82493718  0.38105081  0.95635503    -0.09100
C1363       C  0.85837121  0.38312952  0.94648628    -0.17900
C1364       C  0.85994293  0.34489631  0.94263649     0.04500
C1365       C  0.82708172  0.30452745  0.94951379     0.18700
C1366       C  0.79382654  0.30297107  0.95944144    -0.19300
C1367       C  0.82705363  0.26565912  0.94623993    -0.20600
C1368       C  0.85828822  0.26567063  0.93587185    -0.19100
C1369       C  0.89033713  0.30455733  0.92854090     0.20100
C1370       C  0.89219398  0.34493897  0.93195620     0.02200
C1371       C  0.92552852  0.38320475  0.92416525    -0.13900
C1372       C  0.95447429  0.38097300  0.91295623    -0.11600
C1373       C  0.95145926  0.34081416  0.90936444     0.01700
C1374       C  0.91987130  0.30296646  0.91743666    -0.23800
H1375       H  0.82468807  0.41103770  0.95885144     0.09700
H1376       H  0.88221785  0.41505633  0.94193717     0.13300
H1377       H  0.76890938  0.27180888  0.96445695     0.12000
H1378       H  0.80225711  0.23486464  0.95153539     0.13200
H1379       H  0.85692325  0.23487440  0.93335156     0.12200
H1380       H  0.92946041  0.41513240  0.92617797     0.09300
H1381       H  0.97848130  0.41052243  0.90670892     0.12600
H1382       H  0.91764769  0.27184371  0.91469592     0.14500
C1383       C  0.66484216  0.05223016  0.08983888    -0.01000
C1384       C  0.67539464  0.05165508  0.07319670    -0.09100
C1385       C  0.67285649  0.08006856  0.06180916    -0.17900
C1386       C  0.65986027  0.11026219  0.06682094     0.04500
C1387       C  0.64792191  0.10953922  0.08366701     0.18700
C1388       C  0.65052054  0.08076969  0.09491343    -0.19300
C1389       C  0.63445977  0.13828254  0.08933138    -0.20600
C1390       C  0.63392983  0.16891131  0.07875908    -0.19100
C1391       C  0.64682515  0.17156521  0.06224604     0.20100
C1392       C  0.65927052  0.14184357  0.05591588     0.02200
C1393       C  0.67140094  0.14575568  0.03905676    -0.13900
C1394       C  0.67224381  0.17847812  0.02909174    -0.11600
C1395       C  0.66121449  0.20849355  0.03554250     0.01700
C1396       C  0.64799972  0.20437497  0.05210688    -0.23800
H1397       H  0.68677202  0.02993562  0.06908270     0.09700
H1398       H  0.68207149  0.07819418  0.04926766     0.13300
H1399       H  0.64216863  0.08108578  0.10780249     0.12000
H1400       H  0.62498592  0.13759276  0.10212569     0.13200
H1401       H  0.62401020  0.19118033  0.08361384     0.12200
H1402       H  0.68083778  0.12432642  0.03324007     0.09300
H1403       H  0.68236279  0.18072008  0.01631504     0.12600
H1404       H  0.63884087  0.22701524  0.05720196     0.14500
C1405       C  0.79439092  0.44846025  0.03613170    -0.01000
C1406       C  0.82513112  0.49046928  0.03040538    -0.09100
C1407       C  0.85870730  0.52065513  0.04073618    -0.17900
C1408       C  0.86275452  0.50963411  0.05720783     0.04500
C1409       C  0.83255008  0.46637339  0.06264109     0.18700
C1410       C  0.79902199  0.43660352  0.05218856    -0.19300
C1411       C  0.83525050  0.45309994  0.07864979    -0.20600
C1412       C  0.86611050  0.48232924  0.08970645    -0.19100
C1413       C  0.89512992  0.52563508  0.08505913     0.20100
C1414       C  0.89470873  0.53992893  0.06865752     0.02200
C1415       C  0.92538607  0.58414689  0.06472206    -0.13900
C1416       C  0.95371621  0.61312523  0.07678889    -0.11600
C1417       C  0.95245059  0.59893837  0.09305701     0.01700
C1418       C  0.92368153  0.55500418  0.09696758    -0.23800
H1419       H  0.82275185  0.50040660  0.01797486     0.09700
H1420       H  0.88066110  0.55248949  0.03557706     0.13300
H1421       H  0.77609300  0.40399416  0.05668339     0.12000
H1422       H  0.81267441  0.42002423  0.08278236     0.13200
H1423       H  0.86663756  0.47118793  0.10213260     0.12200
H1424       H  0.92750999  0.59745780  0.05255080     0.09300
H1425       H  0.97567277  0.64709556  0.07354430     0.12600
H1426       H  0.92281031  0.54393627  0.10953672     0.14500
C1427       C  0.66251438  0.45399734  0.96478797    -0.01000
C1428       C  0.70095291  0.49480053  0.96336165    -0.09100
C1429       C  0.70204500  0.52844904  0.95401705    -0.17900
C1430       C  0.66455573  0.52240214  0.94553058     0.04500
C1431       C  0.62529303  0.48132722  0.94726809     0.18700
C1432       C  0.62451825  0.44778727  0.95691529    -0.19300
C1433       C  0.58729375  0.47364704  0.93906408    -0.20600
C1434       C  0.58778594  0.50528676  0.92869874    -0.19100
C1435       C  0.62623869  0.54551170  0.92631742     0.20100
C1436       C  0.66497524  0.55507053  0.93498760     0.02200
C1437       C  0.70279450  0.59641284  0.93230371    -0.13900
C1438       C  0.70279334  0.62574102  0.92079223    -0.11600
C1439       C  0.66517444  0.61533263  0.91172224     0.01700
C1440       C  0.62662625  0.57564393  0.91485801    -0.23800
H1441       H  0.73069538  0.50086232  0.96945827     0.09700
H1442       H  0.73300850  0.55855739  0.95349873     0.13300
H1443       H  0.59450663  0.41646254  0.95796260     0.12000
H1444       H  0.55715951  0.44256809  0.94040302     0.13200
H1445       H  0.55805108  0.49789592  0.92224510     0.12200
H1446       H  0.73322188  0.60676885  0.93860717     0.09300
H1447       H  0.73277463  0.65649305  0.91865669     0.12600
H1448       H  0.59746568  0.56734796  0.90779721     0.14500
loop_ 
_geom_bond_atom_site_label_1 
_geom_bond_atom_site_label_2 
_geom_bond_distance 
_geom_bond_site_symmetry_2 
_ccdc_geom_bond_type 
Zn1           O5   1.965       .  S
Zn1           O6   2.022   1_556  S
Zn1          O10   2.017       .  S
Zn1          O17   2.028       .  S
Zn2           O5   1.952   1_554  S
Zn2           O7   2.038       .  S
Zn2           O9   2.024       .  S
Zn2          O13   2.023       .  S
Zn3           O5   1.966       .  S
Zn3           O8   2.016       .  S
Zn3          O11   2.028   1_556  S
Zn3          O14   2.007       .  S
Zn4           O5   1.976       .  S
Zn4          O12   2.042       .  S
Zn4          O15   2.049   1_556  S
Zn4          O16   2.045       .  S
O6           C18   1.274       .  A
O7           C19   1.276       .  A
O8           C20   1.274       .  A
O9           C18   1.275       .  A
O10          C20   1.275       .  A
O11          C19   1.273       .  A
O12          C21   1.277       .  A
O13          C22   1.277       .  A
O14          C21   1.274       .  A
O15          C22   1.277       .  A
O16          C23   1.278       .  A
O17          C23   1.275       .  A
C18        C1395   1.485       .  S
C19        C1405   1.490       .  S
C20        C1361   1.483       .  S
C21        C1427   1.486       .  S
C22        C1351   1.492       .  S
C23        C1329   1.492       .  S
Zn24         O28   1.950       .  S
Zn24         O29   2.011       .  S
Zn24         O33   2.006       .  S
Zn24         O40   2.009       .  S
Zn25         O28   1.963       .  S
Zn25         O30   2.025       .  S
Zn25         O32   2.024       .  S
Zn25         O36   2.024       .  S
Zn26         O28   1.964       .  S
Zn26         O31   2.027       .  S
Zn26         O34   2.032       .  S
Zn26         O37   2.026       .  S
Zn27         O28   1.965       .  S
Zn27         O35   2.028       .  S
Zn27         O38   2.025       .  S
Zn27         O39   2.041       .  S
O29          C41   1.273       .  A
O30          C42   1.275       .  A
O31          C43   1.275       .  A
O32          C41   1.274       .  A
O33          C43   1.273       .  A
O34          C42   1.275       .  A
O35          C44   1.276       .  A
O36          C45   1.275       .  A
O37          C44   1.276       .  A
O38          C45   1.276       .  A
O39          C46   1.275       .  A
O40          C46   1.273       .  A
C41        C1185   1.483       .  S
C42        C1207   1.488       .  S
C43        C1229   1.483       .  S
C44        C1273   1.486       .  S
C45        C1251   1.485       .  S
C46        C1295   1.486       .  S
N47          C52   1.356       .  A
N47          C51   1.353   1_545  A
N47          H79   1.035       .  S
N48          C55   1.351       .  A
N48          C56   1.353       .  A
N49          C54   1.354   1_565  A
N49          C53   1.355       .  A
N49          H80   1.041       .  S
N50          C57   1.352       .  A
N50          C58   1.350       .  A
C51          C59   1.389       .  A
C51          C67   1.420       .  A
C52          C68   1.420       .  A
C52          C60   1.387       .  A
C53          C61   1.386       .  A
C53          C70   1.417       .  A
C54          C69   1.417       .  A
C54          C62   1.387       .  A
C55          C67   1.415       .  A
C55          C63   1.387       .  A
C56          C70   1.417       .  A
C56          C64   1.386       .  A
C57          C65   1.385       .  A
C57          C68   1.412       .  A
C58          C66   1.388       .  A
C58          C69   1.416       .  A
C59          C60   1.369   1_565  A
C59          H71   1.082       .  S
C60          H72   1.082       .  S
C61          C62   1.373   1_565  A
C61          H73   1.082       .  S
C62          H74   1.082       .  S
C63          C64   1.373       .  A
C63          H75   1.081       .  S
C64          H76   1.081       .  S
C65          C66   1.372       .  A
C65          H77   1.081       .  S
C66          H78   1.082       .  S
C67        C1175   1.484       .  S
C68        C1141   1.491       .  S
C69        C1109   1.492       .  S
C70        C1131   1.500       .  S
N81          C86   1.354       .  A
N81          C85   1.352       .  A
N81         H113   1.040       .  S
N82          C89   1.351       .  A
N82          C90   1.352       .  A
N83          C88   1.351       .  A
N83          C87   1.353       .  A
N83         H114   1.041       .  S
N84          C91   1.350       .  A
N84          C92   1.349       .  A
C85          C93   1.387       .  A
C85         C101   1.414       .  A
C86         C102   1.417       .  A
C86          C94   1.387       .  A
C87          C95   1.388       .  A
C87         C104   1.417       .  A
C88         C103   1.409       .  A
C88          C96   1.385       .  A
C89         C101   1.412       .  A
C89          C97   1.386       .  A
C90         C104   1.416       .  A
C90          C98   1.387       .  A
C91          C99   1.387       .  A
C91         C102   1.412       .  A
C92         C100   1.385       .  A
C92         C103   1.407       .  A
C93          C94   1.376       .  A
C93         H105   1.082       .  S
C94         H106   1.082       .  S
C95          C96   1.375       .  A
C95         H107   1.082       .  S
C96         H108   1.082       .  S
C97          C98   1.376       .  A
C97         H109   1.082       .  S
C98         H110   1.082       .  S
C99         C100   1.375       .  A
C99         H111   1.082       .  S
C100        H112   1.082       .  S
C101       C1021   1.487       .  S
C102       C1043   1.493       .  S
C103       C1065   1.478       .  S
C104       C1087   1.498       .  S
N115        C120   1.358       .  A
N115        C119   1.356   1_655  A
N115        H147   1.037       .  S
N116        C123   1.353       .  A
N116        C124   1.356       .  A
N117        C122   1.352       .  A
N117        C121   1.351   1_655  A
N117        H148   1.037       .  S
N118        C125   1.349       .  A
N118        C126   1.349       .  A
C119        C127   1.391       .  A
C119        C135   1.423       .  A
C120        C136   1.420       .  A
C120        C128   1.384       .  A
C121        C129   1.387       .  A
C121        C138   1.413       .  A
C122        C137   1.410       .  A
C122        C130   1.386       .  A
C123        C135   1.423       .  A
C123        C131   1.390       .  A
C124        C138   1.417       .  A
C124        C132   1.384       .  A
C125        C133   1.387       .  A
C125        C136   1.411       .  A
C126        C134   1.385       .  A
C126        C137   1.406       .  A
C127        C128   1.371   1_455  A
C127        H139   1.078       .  S
C128        H140   1.082       .  S
C129        C130   1.375   1_455  A
C129        H141   1.082       .  S
C130        H142   1.082       .  S
C131        C132   1.370       .  A
C131        H143   1.080       .  S
C132        H144   1.081       .  S
C133        C134   1.374       .  A
C133        H145   1.082       .  S
C134        H146   1.082       .  S
C135        C965   1.495       .  S
C136        C987   1.497       .  S
C137        C921   1.477       .  S
C138        C955   1.497       .  S
C149       C1197   1.482       .  S
C149        C150   1.416   1_655  A
C149        C154   1.407       .  A
C150        C911   1.486       .  S
C150        C151   1.407       .  A
C151        C152   1.401       .  A
C151        H156   1.085       .  S
C152       C1075   1.478       .  S
C152        C153   1.415   1_455  A
C153       C1153   1.490       .  S
C153        C154   1.402       .  A
C154        H155   1.084       .  S
C157        C877   1.484       .  S
C157        C158   1.412   1_565  A
C157        C162   1.406       .  A
C158       C1241   1.480       .  S
C158        C159   1.401       .  A
C159        C160   1.401       .  A
C159        H164   1.085       .  S
C160       C1053   1.485       .  S
C160        C161   1.426   1_545  A
C161        C977   1.504       .  S
C161        C162   1.407       .  A
C162        H163   1.083       .  S
C165        C855   1.483       .  S
C165        C166   1.416       .  A
C165        C170   1.409       .  A
C166       C1439   1.486       .  S
C166        C167   1.404       .  A
C167        C168   1.400       .  A
C167        H172   1.085       .  S
C168        C933   1.476       .  S
C168        C169   1.417       .  A
C169       C1119   1.497       .  S
C169        C170   1.405       .  A
C170        H171   1.084       .  S
C173       C1307   1.483       .  S
C173        C174   1.416       .  A
C173        C178   1.407       .  A
C174        C845   1.483       .  S
C174        C175   1.405       .  A
C175        C176   1.399       .  A
C175        H180   1.085       .  S
C176       C1163   1.482       .  S
C176        C177   1.414       .  A
C177        C999   1.479       .  S
C177        C178   1.400       .  A
C178        H179   1.085       .  S
C181        C811   1.488       .  S
C181        C182   1.421   1_565  A
C181        C186   1.411       .  A
C182       C1317   1.490       .  S
C182        C183   1.410       .  A
C183        C184   1.402       .  A
C183        H188   1.084       .  S
C184       C1031   1.477       .  S
C184        C185   1.408   1_545  A
C185        C943   1.481       .  S
C185        C186   1.398       .  A
C186        H187   1.085       .  S
C189       C1373   1.482       .  S
C189        C190   1.415   1_655  A
C189        C194   1.404       .  A
C190        C801   1.484       .  S
C190        C191   1.407       .  A
C191        C192   1.401       .  A
C191        H196   1.085       .  S
C192       C1009   1.482       .  S
C192        C193   1.417   1_455  A
C193       C1097   1.491       .  S
C193        C194   1.402       .  A
C194        H195   1.084       .  S
Zn197       O201   1.960       .  S
Zn197       O202   2.025       .  S
Zn197       O206   2.030       .  S
Zn197       O213   2.018       .  S
Zn198       O201   1.947       .  S
Zn198       O203   2.015       .  S
Zn198       O205   2.017       .  S
Zn198       O209   2.016       .  S
Zn199       O201   1.961       .  S
Zn199       O204   2.027       .  S
Zn199       O207   2.026       .  S
Zn199       O210   2.027       .  S
Zn200       O201   1.966       .  S
Zn200       O208   2.023       .  S
Zn200       O211   2.041       .  S
Zn200       O212   2.021       .  S
O202        C214   1.274       .  A
O203        C215   1.275       .  A
O204        C216   1.274       .  A
O205        C214   1.274       .  A
O206        C216   1.276       .  A
O207        C215   1.275       .  A
O208        C217   1.275       .  A
O209        C218   1.274       .  A
O210        C217   1.277       .  A
O211        C218   1.275       .  A
O212        C219   1.276       .  A
O213        C219   1.275       .  A
C214        C735   1.482       .  S
C215        C745   1.484       .  S
C216        C899   1.487       .  S
C217        C889   1.486       .  S
C218        C767   1.489       .  S
C219        C833   1.483       .  S
Zn220       O224   1.956   1_556  S
Zn220       O225   2.035       .  S
Zn220       O229   2.027       .  S
Zn220       O236   2.022       .  S
Zn221       O224   1.963       .  S
Zn221       O226   2.019       .  S
Zn221       O228   2.012   1_554  S
Zn221       O232   2.026       .  S
Zn222       O224   1.966       .  S
Zn222       O227   2.028   1_554  S
Zn222       O230   2.020       .  S
Zn222       O233   2.021       .  S
Zn223       O224   1.965       .  S
Zn223       O231   2.029       .  S
Zn223       O234   2.026       .  S
Zn223       O235   2.030   1_554  S
O225        C237   1.276       .  A
O226        C238   1.275       .  A
O227        C239   1.274       .  A
O228        C237   1.273       .  A
O229        C239   1.276       .  A
O230        C238   1.274       .  A
O231        C240   1.276       .  A
O232        C241   1.274       .  A
O233        C240   1.275       .  A
O234        C241   1.276       .  A
O235        C242   1.275       .  A
O236        C242   1.275       .  A
C237        C867   1.484       .  S
C238        C713   1.485       .  S
C239        C823   1.488       .  S
C240        C691   1.487       .  S
C241        C657   1.487       .  S
C242        C789   1.487       .  S
N243        C248   1.354   1_655  A
N243        C247   1.352       .  A
N243        H275   1.040   1_655  S
N244        C251   1.354       .  A
N244        C252   1.352       .  A
N245        C250   1.357       .  A
N245        C249   1.357   1_455  A
N245        H276   1.040       .  S
N246        C253   1.352       .  A
N246        C254   1.352       .  A
C247        C255   1.386       .  A
C247        C263   1.415       .  A
C248        C264   1.415       .  A
C248        C256   1.388       .  A
C249        C257   1.389       .  A
C249        C266   1.424       .  A
C250        C265   1.422       .  A
C250        C258   1.386       .  A
C251        C263   1.417       .  A
C251        C259   1.385       .  A
C252        C266   1.418       .  A
C252        C260   1.388       .  A
C253        C261   1.386       .  A
C253        C264   1.413       .  A
C254        C262   1.387       .  A
C254        C265   1.417       .  A
C255        C256   1.372   1_655  A
C255        H267   1.082       .  S
C256        H268   1.081       .  S
C257        C258   1.372   1_655  A
C257        H269   1.080       .  S
C258        H270   1.082       .  S
C259        C260   1.372       .  A
C259        H271   1.081       .  S
C260        H272   1.080       .  S
C261        C262   1.373       .  A
C261        H273   1.081       .  S
C262        H274   1.082       .  S
C263        C581   1.498       .  S
C264        C613   1.486       .  S
C265        C647   1.502       .  S
C266        C603   1.494       .  S
N277        C282   1.351       .  A
N277        C281   1.354       .  A
N277        H309   1.039       .  S
N278        C285   1.351       .  A
N278        C286   1.351       .  A
N279        C284   1.354       .  A
N279        C283   1.354       .  A
N279        H310   1.041       .  S
N280        C287   1.351       .  A
N280        C288   1.353       .  A
C281        C289   1.387       .  A
C281        C297   1.414       .  A
C282        C298   1.413       .  A
C282        C290   1.387       .  A
C283        C291   1.388       .  A
C283        C300   1.419       .  A
C284        C299   1.416       .  A
C284        C292   1.386       .  A
C285        C297   1.410       .  A
C285        C293   1.384       .  A
C286        C300   1.416       .  A
C286        C294   1.388       .  A
C287        C295   1.386       .  A
C287        C298   1.413       .  A
C288        C296   1.386       .  A
C288        C299   1.413       .  A
C289        C290   1.377       .  A
C289        H301   1.082       .  S
C290        H302   1.082       .  S
C291        C292   1.377       .  A
C291        H303   1.082       .  S
C292        H304   1.082       .  S
C293        C294   1.375       .  A
C293        H305   1.082       .  S
C294        H306   1.082       .  S
C295        C296   1.375       .  A
C295        H307   1.082       .  S
C296        H308   1.082       .  S
C297        C525   1.487       .  S
C298        C481   1.483       .  S
C299        C503   1.495       .  S
C300        C547   1.497       .  S
C311       C1219   1.487       .  S
C311        C312   1.419   1_545  A
C311        C316   1.407       .  A
C312        C779   1.491       .  S
C312        C313   1.411       .  A
C313        C314   1.403       .  A
C313        H318   1.084       .  S
C314        C537   1.491       .  S
C314        C315   1.418   1_565  A
C315        C569   1.492       .  S
C315        C316   1.403       .  A
C316        H317   1.084       .  S
N319        C324   1.352       .  A
N319        C323   1.353   1_545  A
N319        H351   1.042       .  S
N320        C327   1.349       .  A
N320        C328   1.349       .  A
N321        C326   1.353   1_565  A
N321        C325   1.354       .  A
N321        H352   1.041   1_565  S
N322        C329   1.352       .  A
N322        C330   1.351       .  A
C323        C331   1.387       .  A
C323        C339   1.414       .  A
C324        C340   1.415       .  A
C324        C332   1.387       .  A
C325        C333   1.387       .  A
C325        C342   1.418       .  A
C326        C341   1.416       .  A
C326        C334   1.387       .  A
C327        C339   1.410       .  A
C327        C335   1.386       .  A
C328        C342   1.411       .  A
C328        C336   1.386       .  A
C329        C337   1.387       .  A
C329        C340   1.416       .  A
C330        C338   1.386       .  A
C330        C341   1.413       .  A
C331        C332   1.375   1_565  A
C331        H343   1.082       .  S
C332        H344   1.082       .  S
C333        C334   1.375   1_565  A
C333        H345   1.082       .  S
C334        H346   1.081       .  S
C335        C336   1.374       .  A
C335        H347   1.082       .  S
C336        H348   1.082       .  S
C337        C338   1.374       .  A
C337        H349   1.082       .  S
C338        H350   1.082       .  S
C339        C393   1.490       .  S
C340        C449   1.496       .  S
C341        C471   1.485       .  S
C342        C415   1.493       .  S
C353       C1383   1.484       .  S
C353        C354   1.418   1_545  A
C353        C358   1.408       .  A
C354        C701   1.488       .  S
C354        C355   1.406       .  A
C355        C356   1.399       .  A
C355        H360   1.085       .  S
C356        C559   1.478       .  S
C356        C357   1.416   1_565  A
C357        C591   1.492       .  S
C357        C358   1.405       .  A
C358        H359   1.084       .  S
C361       C1285   1.479       .  S
C361        C362   1.410       .  A
C361        C366   1.403       .  A
C362        C723   1.475       .  S
C362        C363   1.404       .  A
C363        C364   1.404       .  A
C363        H368   1.084       .  S
C364        C625   1.491       .  S
C364        C365   1.422       .  A
C365        C437   1.491       .  S
C365        C366   1.404       .  A
C366        H367   1.084       .  S
C369       C1339   1.487       .  S
C369        C370   1.413       .  A
C369        C374   1.406       .  A
C370        C669   1.481       .  S
C370        C371   1.408       .  A
C371        C372   1.407       .  A
C371        H376   1.084       .  S
C372        C635   1.501       .  S
C372        C373   1.422       .  A
C373        C459   1.490       .  S
C373        C374   1.405       .  A
C374        H375   1.084       .  S
C377        C757   1.483       .  S
C377        C378   1.416   1_455  A
C377        C382   1.406       .  A
C378       C1263   1.485       .  S
C378        C379   1.407       .  A
C379        C380   1.402       .  A
C379        H384   1.085       .  S
C380        C493   1.480       .  S
C380        C381   1.415   1_655  A
C381        C405   1.489       .  S
C381        C382   1.401       .  A
C382        H383   1.084       .  S
C385       C1417   1.487       .  S
C385        C386   1.414   1_655  A
C385        C390   1.411       .  A
C386        C679   1.483       .  S
C386        C387   1.403       .  A
C387        C388   1.405       .  A
C387        H392   1.084       .  S
C388        C427   1.497       .  S
C388        C389   1.420   1_455  A
C389        C515   1.486       .  S
C389        C390   1.407       .  A
C390        H391   1.084       .  S
C393        C394   1.400       .  A
C393        C398   1.401       .  A
C394        C395   1.396       .  A
C394        H407   1.083       .  S
C395        C396   1.415       .  A
C395        H408   1.078       .  S
C396        C402   1.428       .  A
C396        C397   1.422       .  A
C397        C399   1.399       .  A
C397        C398   1.403       .  A
C398        H409   1.085       .  S
C399        C400   1.389       .  A
C399        H410   1.084       .  S
C400        C401   1.399       .  A
C400        H411   1.084       .  S
C401        C402   1.422       .  A
C401        C406   1.402       .  A
C402        C403   1.415       .  A
C403        C404   1.397       .  A
C403        H412   1.078       .  S
C404        C405   1.400       .  A
C404        H413   1.083       .  S
C405        C406   1.401       .  A
C406        H414   1.083       .  S
C415        C416   1.400       .  A
C415        C420   1.404       .  A
C416        C417   1.395       .  A
C416        H429   1.083       .  S
C417        C418   1.413       .  A
C417        H430   1.078       .  S
C418        C424   1.426       .  A
C418        C419   1.421       .  A
C419        C421   1.400       .  A
C419        C420   1.404       .  A
C420        H431   1.084       .  S
C421        C422   1.392       .  A
C421        H432   1.084       .  S
C422        C423   1.400       .  A
C422        H433   1.084       .  S
C423        C424   1.420       .  A
C423        C428   1.404       .  A
C424        C425   1.412       .  A
C425        C426   1.395       .  A
C425        H434   1.078       .  S
C426        C427   1.403       .  A
C426        H435   1.083       .  S
C427        C428   1.405       .  A
C428        H436   1.081       .  S
C437        C438   1.403       .  A
C437        C442   1.402       .  A
C438        C439   1.395       .  A
C438        H451   1.083       .  S
C439        C440   1.412       .  A
C439        H452   1.079       .  S
C440        C446   1.426       .  A
C440        C441   1.421       .  A
C441        C443   1.400       .  A
C441        C442   1.405       .  A
C442        H453   1.084       .  S
C443        C444   1.391       .  A
C443        H454   1.084       .  S
C444        C445   1.400       .  A
C444        H455   1.084       .  S
C445        C446   1.420       .  A
C445        C450   1.403       .  A
C446        C447   1.414       .  A
C447        C448   1.397       .  A
C447        H456   1.079       .  S
C448        C449   1.402       .  A
C448        H457   1.083       .  S
C449        C450   1.404       .  A
C450        H458   1.085       .  S
C459        C460   1.401       .  A
C459        C464   1.403       .  A
C460        C461   1.393       .  A
C460        H473   1.083       .  S
C461        C462   1.413       .  A
C461        H474   1.078       .  S
C462        C468   1.427       .  A
C462        C463   1.422       .  A
C463        C465   1.401       .  A
C463        C464   1.407       .  A
C464        H475   1.084       .  S
C465        C466   1.393       .  A
C465        H476   1.084       .  S
C466        C467   1.400       .  A
C466        H477   1.084       .  S
C467        C468   1.422       .  A
C467        C472   1.406       .  A
C468        C469   1.414       .  A
C469        C470   1.394       .  A
C469        H478   1.078       .  S
C470        C471   1.398       .  A
C470        H479   1.084       .  S
C471        C472   1.401       .  A
C472        H480   1.085       .  S
C481        C482   1.398       .  A
C481        C486   1.397       .  A
C482        C483   1.395       .  A
C482        H495   1.084       .  S
C483        C484   1.415       .  A
C483        H496   1.077       .  S
C484        C490   1.429       .  A
C484        C485   1.424       .  A
C485        C487   1.398       .  A
C485        C486   1.404       .  A
C486        H497   1.085       .  S
C487        C488   1.389       .  A
C487        H498   1.084       .  S
C488        C489   1.399       .  A
C488        H499   1.084       .  S
C489        C490   1.423       .  A
C489        C494   1.404       .  A
C490        C491   1.416       .  A
C491        C492   1.396       .  A
C491        H500   1.077       .  S
C492        C493   1.398       .  A
C492        H501   1.083       .  S
C493        C494   1.398       .  A
C494        H502   1.085       .  S
C503        C504   1.399       .  A
C503        C508   1.404       .  A
C504        C505   1.394       .  A
C504        H517   1.084       .  S
C505        C506   1.414       .  A
C505        H518   1.076       .  S
C506        C512   1.432       .  A
C506        C507   1.423       .  A
C507        C509   1.401       .  A
C507        C508   1.412       .  A
C508        H519   1.084       .  S
C509        C510   1.394       .  A
C509        H520   1.084       .  S
C510        C511   1.401       .  A
C510        H521   1.084       .  S
C511        C512   1.423       .  A
C511        C516   1.411       .  A
C512        C513   1.415       .  A
C513        C514   1.395       .  A
C513        H522   1.076       .  S
C514        C515   1.397       .  A
C514        H523   1.084       .  S
C515        C516   1.403       .  A
C516        H524   1.084       .  S
C525        C526   1.399       .  A
C525        C530   1.398       .  A
C526        C527   1.401       .  A
C526        H539   1.083       .  S
C527        C528   1.417       .  A
C527        H540   1.078       .  S
C528        C534   1.434       .  A
C528        C529   1.424       .  A
C529        C531   1.398       .  A
C529        C530   1.404       .  A
C530        H541   1.085       .  S
C531        C532   1.388       .  A
C531        H542   1.084       .  S
C532        C533   1.399       .  A
C532        H543   1.084       .  S
C533        C534   1.423       .  A
C533        C538   1.404       .  A
C534        C535   1.417       .  A
C535        C536   1.401       .  A
C535        H544   1.077       .  S
C536        C537   1.400       .  A
C536        H545   1.083       .  S
C537        C538   1.401       .  A
C538        H546   1.085       .  S
C547        C548   1.402       .  A
C547        C552   1.405       .  A
C548        C549   1.395       .  A
C548        H561   1.083       .  S
C549        C550   1.413       .  A
C549        H562   1.079       .  S
C550        C556   1.425       .  A
C550        C551   1.420       .  A
C551        C553   1.401       .  A
C551        C552   1.405       .  A
C552        H563   1.084       .  S
C553        C554   1.393       .  A
C553        H564   1.084       .  S
C554        C555   1.400       .  A
C554        H565   1.084       .  S
C555        C556   1.422       .  A
C555        C560   1.406       .  A
C556        C557   1.413       .  A
C557        C558   1.395       .  A
C557        H566   1.079       .  S
C558        C559   1.398       .  A
C558        H567   1.083       .  S
C559        C560   1.400       .  A
C560        H568   1.084       .  S
C569        C570   1.402       .  A
C569        C574   1.403       .  A
C570        C571   1.398       .  A
C570        H583   1.083       .  S
C571        C572   1.414       .  A
C571        H584   1.079       .  S
C572        C578   1.426       .  A
C572        C573   1.420       .  A
C573        C575   1.399       .  A
C573        C574   1.400       .  A
C574        H585   1.084       .  S
C575        C576   1.390       .  A
C575        H586   1.084       .  S
C576        C577   1.399       .  A
C576        H587   1.084       .  S
C577        C578   1.421       .  A
C577        C582   1.404       .  A
C578        C579   1.412       .  A
C579        C580   1.396       .  A
C579        H588   1.079       .  S
C580        C581   1.404       .  A
C580        H589   1.083       .  S
C581        C582   1.403       .  A
C582        H590   1.084       .  S
C591        C592   1.402       .  A
C591        C596   1.401       .  A
C592        C593   1.400       .  A
C592        H605   1.083       .  S
C593        C594   1.416       .  A
C593        H606   1.078       .  S
C594        C600   1.429       .  A
C594        C595   1.420       .  A
C595        C597   1.399       .  A
C595        C596   1.401       .  A
C596        H607   1.081       .  S
C597        C598   1.389       .  A
C597        H608   1.084       .  S
C598        C599   1.399       .  A
C598        H609   1.084       .  S
C599        C600   1.422       .  A
C599        C604   1.403       .  A
C600        C601   1.414       .  A
C601        C602   1.399       .  A
C601        H610   1.078       .  S
C602        C603   1.401       .  A
C602        H611   1.083       .  S
C603        C604   1.401       .  A
C604        H612   1.085       .  S
C613        C614   1.399       .  A
C613        C618   1.400       .  A
C614        C615   1.395       .  A
C614        H627   1.084       .  S
C615        C616   1.414       .  A
C615        H628   1.079       .  S
C616        C622   1.425       .  A
C616        C617   1.421       .  A
C617        C619   1.400       .  A
C617        C618   1.404       .  A
C618        H629   1.085       .  S
C619        C620   1.392       .  A
C619        H630   1.084       .  S
C620        C621   1.400       .  A
C620        H631   1.084       .  S
C621        C622   1.421       .  A
C621        C626   1.406       .  A
C622        C623   1.411       .  A
C623        C624   1.394       .  A
C623        H632   1.079       .  S
C624        C625   1.403       .  A
C624        H633   1.083       .  S
C625        C626   1.403       .  A
C626        H634   1.084       .  S
C635        C636   1.405       .  A
C635        C640   1.406       .  A
C636        C637   1.397       .  A
C636        H649   1.083       .  S
C637        C638   1.412       .  A
C637        H650   1.079       .  S
C638        C644   1.429       .  A
C638        C639   1.420       .  A
C639        C641   1.400       .  A
C639        C640   1.408       .  A
C640        H651   1.084       .  S
C641        C642   1.393       .  A
C641        H652   1.084       .  S
C642        C643   1.401       .  A
C642        H653   1.084       .  S
C643        C644   1.421       .  A
C643        C648   1.407       .  A
C644        C645   1.413       .  A
C645        C646   1.397       .  A
C645        H654   1.079       .  S
C646        C647   1.403       .  A
C646        H655   1.083       .  S
C647        C648   1.405       .  A
C648        H656   1.084       .  S
C657        C658   1.401       .  A
C657        C662   1.405       .  A
C658        C659   1.396       .  A
C658        H671   1.083       .  S
C659        C660   1.415       .  A
C659        H672   1.077       .  S
C660        C666   1.431       .  A
C660        C661   1.422       .  A
C661        C663   1.401       .  A
C661        C662   1.409       .  A
C662        H673   1.084       .  S
C663        C664   1.393       .  A
C663        H674   1.084       .  S
C664        C665   1.400       .  A
C664        H675   1.084       .  S
C665        C666   1.424       .  A
C665        C670   1.410       .  A
C666        C667   1.414       .  A
C667        C668   1.394       .  A
C667        H676   1.077       .  S
C668        C669   1.398       .  A
C668        H677   1.084       .  S
C669        C670   1.400       .  A
C670        H678   1.084       .  S
C679        C680   1.399       .  A
C679        C684   1.399       .  A
C680        C681   1.395       .  A
C680        H693   1.084       .  S
C681        C682   1.414       .  A
C681        H694   1.077       .  S
C682        C688   1.431       .  A
C682        C683   1.424       .  A
C683        C685   1.399       .  A
C683        C684   1.409       .  A
C684        H695   1.084       .  S
C685        C686   1.392       .  A
C685        H696   1.084       .  S
C686        C687   1.400       .  A
C686        H697   1.084       .  S
C687        C688   1.422       .  A
C687        C692   1.408       .  A
C688        C689   1.415       .  A
C689        C690   1.397       .  A
C689        H698   1.077       .  S
C690        C691   1.402       .  A
C690        H699   1.083       .  S
C691        C692   1.404       .  A
C692        H700   1.084       .  S
C701        C702   1.400       .  A
C701        C706   1.401       .  A
C702        C703   1.399       .  A
C702        H715   1.083       .  S
C703        C704   1.417       .  A
C703        H716   1.077       .  S
C704        C710   1.432       .  A
C704        C705   1.422       .  A
C705        C707   1.399       .  A
C705        C706   1.402       .  A
C706        H717   1.085       .  S
C707        C708   1.388       .  A
C707        H718   1.084       .  S
C708        C709   1.399       .  A
C708        H719   1.084       .  S
C709        C710   1.423       .  A
C709        C714   1.404       .  A
C710        C711   1.415       .  A
C711        C712   1.398       .  A
C711        H720   1.077       .  S
C712        C713   1.403       .  A
C712        H721   1.083       .  S
C713        C714   1.402       .  A
C714        H722   1.084       .  S
C723        C724   1.397       .  A
C723        C728   1.398       .  A
C724        C725   1.395       .  A
C724        H737   1.084       .  S
C725        C726   1.415       .  A
C725        H738   1.077       .  S
C726        C732   1.430       .  A
C726        C727   1.424       .  A
C727        C729   1.399       .  A
C727        C728   1.407       .  A
C728        H739   1.085       .  S
C729        C730   1.391       .  A
C729        H740   1.084       .  S
C730        C731   1.400       .  A
C730        H741   1.084       .  S
C731        C732   1.422       .  A
C731        C736   1.407       .  A
C732        C733   1.415       .  A
C733        C734   1.396       .  A
C733        H742   1.077       .  S
C734        C735   1.401       .  A
C734        H743   1.083       .  S
C735        C736   1.403       .  A
C736        H744   1.084       .  S
C745        C746   1.402       .  A
C745        C750   1.403       .  A
C746        C747   1.396       .  A
C746        H759   1.083       .  S
C747        C748   1.415       .  A
C747        H760   1.077       .  S
C748        C754   1.429       .  A
C748        C749   1.422       .  A
C749        C751   1.400       .  A
C749        C750   1.406       .  A
C750        H761   1.084       .  S
C751        C752   1.391       .  A
C751        H762   1.084       .  S
C752        C753   1.399       .  A
C752        H763   1.084       .  S
C753        C754   1.423       .  A
C753        C758   1.406       .  A
C754        C755   1.414       .  A
C755        C756   1.394       .  A
C755        H764   1.077       .  S
C756        C757   1.400       .  A
C756        H765   1.084       .  S
C757        C758   1.400       .  A
C758        H766   1.084       .  S
C767        C768   1.402       .  A
C767        C772   1.406       .  A
C768        C769   1.395       .  A
C768        H781   1.083       .  S
C769        C770   1.414       .  A
C769        H782   1.077       .  S
C770        C776   1.432       .  A
C770        C771   1.422       .  A
C771        C773   1.401       .  A
C771        C772   1.411       .  A
C772        H783   1.084       .  S
C773        C774   1.394       .  A
C773        H784   1.084       .  S
C774        C775   1.401       .  A
C774        H785   1.084       .  S
C775        C776   1.423       .  A
C775        C780   1.412       .  A
C776        C777   1.413       .  A
C777        C778   1.393       .  A
C777        H786   1.077       .  S
C778        C779   1.401       .  A
C778        H787   1.084       .  S
C779        C780   1.404       .  A
C780        H788   1.084       .  S
C789        C790   1.403       .  A
C789        C794   1.401       .  A
C790        C791   1.402       .  A
C790        H803   1.083       .  S
C791        C792   1.416       .  A
C791        H804   1.078       .  S
C792        C798   1.433       .  A
C792        C793   1.423       .  A
C793        C795   1.398       .  A
C793        C794   1.403       .  A
C794        H805   1.084       .  S
C795        C796   1.387       .  A
C795        H806   1.084       .  S
C796        C797   1.398       .  A
C796        H807   1.084       .  S
C797        C798   1.423       .  A
C797        C802   1.401       .  A
C798        C799   1.418       .  A
C799        C800   1.402       .  A
C799        H808   1.078       .  S
C800        C801   1.401       .  A
C800        H809   1.083       .  S
C801        C802   1.398       .  A
C802        H810   1.085       .  S
C811        C812   1.402       .  A
C811        C816   1.399       .  A
C812        C813   1.404       .  A
C812        H825   1.083       .  S
C813        C814   1.419       .  A
C813        H826   1.078       .  S
C814        C820   1.435       .  A
C814        C815   1.422       .  A
C815        C817   1.397       .  A
C815        C816   1.400       .  A
C816        H827   1.085       .  S
C817        C818   1.385       .  A
C817        H828   1.084       .  S
C818        C819   1.398       .  A
C818        H829   1.084       .  S
C819        C820   1.423       .  A
C819        C824   1.403       .  A
C820        C821   1.416       .  A
C821        C822   1.403       .  A
C821        H830   1.078       .  S
C822        C823   1.405       .  A
C822        H831   1.083       .  S
C823        C824   1.401       .  A
C824        H832   1.084       .  S
C833        C834   1.402       .  A
C833        C838   1.402       .  A
C834        C835   1.397       .  A
C834        H847   1.083       .  S
C835        C836   1.414       .  A
C835        H848   1.077       .  S
C836        C842   1.430       .  A
C836        C837   1.423       .  A
C837        C839   1.399       .  A
C837        C838   1.404       .  A
C838        H849   1.084       .  S
C839        C840   1.388       .  A
C839        H850   1.084       .  S
C840        C841   1.399       .  A
C840        H851   1.084       .  S
C841        C842   1.422       .  A
C841        C846   1.402       .  A
C842        C843   1.417       .  A
C843        C844   1.399       .  A
C843        H852   1.077       .  S
C844        C845   1.399       .  A
C844        H853   1.083       .  S
C845        C846   1.400       .  A
C846        H854   1.085       .  S
C855        C856   1.399       .  A
C855        C860   1.399       .  A
C856        C857   1.398       .  A
C856        H869   1.083       .  S
C857        C858   1.417       .  A
C857        H870   1.077       .  S
C858        C864   1.431       .  A
C858        C859   1.422       .  A
C859        C861   1.399       .  A
C859        C860   1.403       .  A
C860        H871   1.085       .  S
C861        C862   1.389       .  A
C861        H872   1.084       .  S
C862        C863   1.399       .  A
C862        H873   1.084       .  S
C863        C864   1.423       .  A
C863        C868   1.406       .  A
C864        C865   1.414       .  A
C865        C866   1.397       .  A
C865        H874   1.077       .  S
C866        C867   1.403       .  A
C866        H875   1.083       .  S
C867        C868   1.402       .  A
C868        H876   1.084       .  S
C877        C878   1.399       .  A
C877        C882   1.400       .  A
C878        C879   1.402       .  A
C878        H891   1.083       .  S
C879        C880   1.419       .  A
C879        H892   1.077       .  S
C880        C886   1.433       .  A
C880        C881   1.422       .  A
C881        C883   1.398       .  A
C881        C882   1.400       .  A
C882        H893   1.085       .  S
C883        C884   1.387       .  A
C883        H894   1.084       .  S
C884        C885   1.398       .  A
C884        H895   1.084       .  S
C885        C886   1.424       .  A
C885        C890   1.404       .  A
C886        C887   1.415       .  A
C887        C888   1.400       .  A
C887        H896   1.078       .  S
C888        C889   1.404       .  A
C888        H897   1.083       .  S
C889        C890   1.401       .  A
C890        H898   1.084       .  S
C899        C900   1.404       .  A
C899        C904   1.402       .  A
C900        C901   1.401       .  A
C900        H913   1.083       .  S
C901        C902   1.416       .  A
C901        H914   1.078       .  S
C902        C908   1.434       .  A
C902        C903   1.423       .  A
C903        C905   1.399       .  A
C903        C904   1.405       .  A
C904        H915   1.084       .  S
C905        C906   1.388       .  A
C905        H916   1.084       .  S
C906        C907   1.398       .  A
C906        H917   1.084       .  S
C907        C908   1.423       .  A
C907        C912   1.403       .  A
C908        C909   1.418       .  A
C909        C910   1.402       .  A
C909        H918   1.078       .  S
C910        C911   1.400       .  A
C910        H919   1.083       .  S
C911        C912   1.399       .  A
C912        H920   1.085       .  S
C921        C922   1.395       .  A
C921        C926   1.398       .  A
C922        C923   1.393       .  A
C922        H935   1.084       .  S
C923        C924   1.415       .  A
C923        H936   1.076       .  S
C924        C930   1.427       .  A
C924        C925   1.424       .  A
C925        C927   1.399       .  A
C925        C926   1.405       .  A
C926        H937   1.085       .  S
C927        C928   1.390       .  A
C927        H938   1.084       .  S
C928        C929   1.399       .  A
C928        H939   1.084       .  S
C929        C930   1.423       .  A
C929        C934   1.404       .  A
C930        C931   1.416       .  A
C931        C932   1.393       .  A
C931        H940   1.076       .  S
C932        C933   1.396       .  A
C932        H941   1.084       .  S
C933        C934   1.399       .  A
C934        H942   1.085       .  S
C943        C944   1.397       .  A
C943        C948   1.400       .  A
C944        C945   1.395       .  A
C944        H957   1.083       .  S
C945        C946   1.415       .  A
C945        H958   1.078       .  S
C946        C952   1.429       .  A
C946        C947   1.422       .  A
C947        C949   1.401       .  A
C947        C948   1.409       .  A
C948        H959   1.084       .  S
C949        C950   1.394       .  A
C949        H960   1.084       .  S
C950        C951   1.401       .  A
C950        H961   1.084       .  S
C951        C952   1.422       .  A
C951        C956   1.409       .  A
C952        C953   1.412       .  A
C953        C954   1.393       .  A
C953        H962   1.078       .  S
C954        C955   1.401       .  A
C954        H963   1.084       .  S
C955        C956   1.404       .  A
C956        H964   1.084       .  S
C965        C966   1.404       .  A
C965        C970   1.403       .  A
C966        C967   1.399       .  A
C966        H979   1.083       .  S
C967        C968   1.411       .  A
C967        H980   1.081       .  S
C968        C974   1.420       .  A
C968        C969   1.418       .  A
C969        C971   1.400       .  A
C969        C970   1.399       .  A
C970        H981   1.085       .  S
C971        C972   1.391       .  A
C971        H982   1.084       .  S
C972        C973   1.400       .  A
C972        H983   1.084   1_565  S
C973        C974   1.415       .  A
C973        C978   1.397       .  A
C974        C975   1.410       .  A
C975        C976   1.400       .  A
C975        H984   1.081       .  S
C976        C977   1.410       .  A
C976        H985   1.082       .  S
C977        C978   1.405       .  A
C978        H986   1.080       .  S
C987        C988   1.403       .  A
C987        C992   1.402       .  A
C988        C989   1.398       .  A
C988       H1001   1.083       .  S
C989        C990   1.414       .  A
C989       H1002   1.078       .  S
C990        C996   1.429       .  A
C990        C991   1.422       .  A
C991        C993   1.399       .  A
C991        C992   1.403       .  A
C992       H1003   1.085       .  S
C993        C994   1.389       .  A
C993       H1004   1.084       .  S
C994        C995   1.399       .  A
C994       H1005   1.084       .  S
C995        C996   1.422       .  A
C995       C1000   1.401       .  A
C996        C997   1.417       .  A
C997        C998   1.400       .  A
C997       H1006   1.078       .  S
C998        C999   1.397       .  A
C998       H1007   1.083       .  S
C999       C1000   1.397       .  A
C1000      H1008   1.085       .  S
C1009      C1010   1.398       .  A
C1009      C1014   1.400       .  A
C1010      C1011   1.394       .  A
C1010      H1023   1.084       .  S
C1011      C1012   1.415       .  A
C1011      H1024   1.077       .  S
C1012      C1018   1.430       .  A
C1012      C1013   1.423       .  A
C1013      C1015   1.400       .  A
C1013      C1014   1.407       .  A
C1014      H1025   1.085       .  S
C1015      C1016   1.391       .  A
C1015      H1026   1.084       .  S
C1016      C1017   1.400       .  A
C1016      H1027   1.084       .  S
C1017      C1018   1.423       .  A
C1017      C1022   1.407       .  A
C1018      C1019   1.415       .  A
C1019      C1020   1.394       .  A
C1019      H1028   1.077       .  S
C1020      C1021   1.398       .  A
C1020      H1029   1.084       .  S
C1021      C1022   1.400       .  A
C1022      H1030   1.084       .  S
C1031      C1032   1.395       .  A
C1031      C1036   1.399       .  A
C1032      C1033   1.393       .  A
C1032      H1045   1.083       .  S
C1033      C1034   1.415       .  A
C1033      H1046   1.077       .  S
C1034      C1040   1.428       .  A
C1034      C1035   1.423       .  A
C1035      C1037   1.400       .  A
C1035      C1036   1.407       .  A
C1036      H1047   1.084       .  S
C1037      C1038   1.393       .  A
C1037      H1048   1.084       .  S
C1038      C1039   1.401       .  A
C1038      H1049   1.084       .  S
C1039      C1040   1.422       .  A
C1039      C1044   1.407       .  A
C1040      C1041   1.413       .  A
C1041      C1042   1.393       .  A
C1041      H1050   1.077       .  S
C1042      C1043   1.400       .  A
C1042      H1051   1.084       .  S
C1043      C1044   1.404       .  A
C1044      H1052   1.084       .  S
C1053      C1054   1.400       .  A
C1053      C1058   1.402       .  A
C1054      C1055   1.393       .  A
C1054      H1067   1.083       .  S
C1055      C1056   1.413       .  A
C1055      H1068   1.077       .  S
C1056      C1062   1.428       .  A
C1056      C1057   1.424       .  A
C1057      C1059   1.399       .  A
C1057      C1058   1.406       .  A
C1058      H1069   1.085       .  S
C1059      C1060   1.390       .  A
C1059      H1070   1.084       .  S
C1060      C1061   1.399       .  A
C1060      H1071   1.084       .  S
C1061      C1062   1.422       .  A
C1061      C1066   1.403       .  A
C1062      C1063   1.417       .  A
C1063      C1064   1.396       .  A
C1063      H1072   1.077       .  S
C1064      C1065   1.395       .  A
C1064      H1073   1.083       .  S
C1065      C1066   1.398       .  A
C1066      H1074   1.085       .  S
C1075      C1076   1.398       .  A
C1075      C1080   1.397       .  A
C1076      C1077   1.398       .  A
C1076      H1089   1.083       .  S
C1077      C1078   1.415       .  A
C1077      H1090   1.078       .  S
C1078      C1084   1.429       .  A
C1078      C1079   1.423       .  A
C1079      C1081   1.398       .  A
C1079      C1080   1.403       .  A
C1080      H1091   1.085       .  S
C1081      C1082   1.389       .  A
C1081      H1092   1.084       .  S
C1082      C1083   1.399       .  A
C1082      H1093   1.084       .  S
C1083      C1084   1.420       .  A
C1083      C1088   1.402       .  A
C1084      C1085   1.415       .  A
C1085      C1086   1.399       .  A
C1085      H1094   1.078       .  S
C1086      C1087   1.402       .  A
C1086      H1095   1.083       .  S
C1087      C1088   1.404       .  A
C1088      H1096   1.085       .  S
C1097      C1098   1.402       .  A
C1097      C1102   1.402       .  A
C1098      C1099   1.396       .  A
C1098      H1111   1.083       .  S
C1099      C1100   1.414       .  A
C1099      H1112   1.078       .  S
C1100      C1106   1.425       .  A
C1100      C1101   1.420       .  A
C1101      C1103   1.399       .  A
C1101      C1102   1.400       .  A
C1102      H1113   1.083       .  S
C1103      C1104   1.389       .  A
C1103      H1114   1.084       .  S
C1104      C1105   1.399       .  A
C1104      H1115   1.084       .  S
C1105      C1106   1.421       .  A
C1105      C1110   1.401       .  A
C1106      C1107   1.413       .  A
C1107      C1108   1.396       .  A
C1107      H1116   1.078       .  S
C1108      C1109   1.401       .  A
C1108      H1117   1.083       .  S
C1109      C1110   1.402       .  A
C1110      H1118   1.084       .  S
C1119      C1120   1.402       .  A
C1119      C1124   1.405       .  A
C1120      C1121   1.399       .  A
C1120      H1133   1.083       .  S
C1121      C1122   1.416       .  A
C1121      H1134   1.078       .  S
C1122      C1128   1.430       .  A
C1122      C1123   1.420       .  A
C1123      C1125   1.400       .  A
C1123      C1124   1.404       .  A
C1124      H1135   1.082       .  S
C1125      C1126   1.392       .  A
C1125      H1136   1.084       .  S
C1126      C1127   1.400       .  A
C1126      H1137   1.084       .  S
C1127      C1128   1.423       .  A
C1127      C1132   1.408       .  A
C1128      C1129   1.413       .  A
C1129      C1130   1.397       .  A
C1129      H1138   1.078       .  S
C1130      C1131   1.402       .  A
C1130      H1139   1.083       .  S
C1131      C1132   1.404       .  A
C1132      H1140   1.084       .  S
C1141      C1142   1.401       .  A
C1141      C1146   1.402       .  A
C1142      C1143   1.393       .  A
C1142      H1155   1.084       .  S
C1143      C1144   1.412       .  A
C1143      H1156   1.079       .  S
C1144      C1150   1.426       .  A
C1144      C1145   1.422       .  A
C1145      C1147   1.401       .  A
C1145      C1146   1.409       .  A
C1146      H1157   1.084       .  S
C1147      C1148   1.394       .  A
C1147      H1158   1.084       .  S
C1148      C1149   1.401       .  A
C1148      H1159   1.084       .  S
C1149      C1150   1.420       .  A
C1149      C1154   1.408       .  A
C1150      C1151   1.412       .  A
C1151      C1152   1.394       .  A
C1151      H1160   1.079       .  S
C1152      C1153   1.400       .  A
C1152      H1161   1.081       .  S
C1153      C1154   1.404       .  A
C1154      H1162   1.084       .  S
C1163      C1164   1.398       .  A
C1163      C1168   1.402       .  A
C1164      C1165   1.392       .  A
C1164      H1177   1.080       .  S
C1165      C1166   1.411       .  A
C1165      H1178   1.079       .  S
C1166      C1172   1.422       .  A
C1166      C1167   1.420       .  A
C1167      C1169   1.401       .  A
C1167      C1168   1.405       .  A
C1168      H1179   1.084       .  S
C1169      C1170   1.393       .  A
C1169      H1180   1.084       .  S
C1170      C1171   1.400       .  A
C1170      H1181   1.084       .  S
C1171      C1172   1.422       .  A
C1171      C1176   1.405       .  A
C1172      C1173   1.412       .  A
C1173      C1174   1.391       .  A
C1173      H1182   1.079       .  S
C1174      C1175   1.399       .  A
C1174      H1183   1.084       .  S
C1175      C1176   1.400       .  A
C1176      H1184   1.084       .  S
C1185      C1186   1.401       .  A
C1185      C1190   1.403       .  A
C1186      C1187   1.395       .  A
C1186      H1199   1.083       .  S
C1187      C1188   1.415       .  A
C1187      H1200   1.077       .  S
C1188      C1194   1.430       .  A
C1188      C1189   1.422       .  A
C1189      C1191   1.400       .  A
C1189      C1190   1.406       .  A
C1190      H1201   1.084       .  S
C1191      C1192   1.391       .  A
C1191      H1202   1.084       .  S
C1192      C1193   1.399       .  A
C1192      H1203   1.084       .  S
C1193      C1194   1.424       .  A
C1193      C1198   1.407       .  A
C1194      C1195   1.414       .  A
C1195      C1196   1.393       .  A
C1195      H1204   1.077       .  S
C1196      C1197   1.398       .  A
C1196      H1205   1.084       .  S
C1197      C1198   1.400       .  A
C1198      H1206   1.084       .  S
C1207      C1208   1.402       .  A
C1207      C1212   1.405       .  A
C1208      C1209   1.397       .  A
C1208      H1221   1.083       .  S
C1209      C1210   1.415       .  A
C1209      H1222   1.077       .  S
C1210      C1216   1.432       .  A
C1210      C1211   1.422       .  A
C1211      C1213   1.401       .  A
C1211      C1212   1.409       .  A
C1212      H1223   1.084       .  S
C1213      C1214   1.392       .  A
C1213      H1224   1.084       .  S
C1214      C1215   1.399       .  A
C1214      H1225   1.084       .  S
C1215      C1216   1.424       .  A
C1215      C1220   1.410       .  A
C1216      C1217   1.413       .  A
C1217      C1218   1.394       .  A
C1217      H1226   1.077       .  S
C1218      C1219   1.401       .  A
C1218      H1227   1.084       .  S
C1219      C1220   1.401       .  A
C1220      H1228   1.084       .  S
C1229      C1230   1.402       .  A
C1229      C1234   1.402       .  A
C1230      C1231   1.395       .  A
C1230      H1243   1.083       .  S
C1231      C1232   1.415       .  A
C1231      H1244   1.077       .  S
C1232      C1238   1.430       .  A
C1232      C1233   1.422       .  A
C1233      C1235   1.400       .  A
C1233      C1234   1.405       .  A
C1234      H1245   1.084       .  S
C1235      C1236   1.390       .  A
C1235      H1246   1.084       .  S
C1236      C1237   1.399       .  A
C1236      H1247   1.084       .  S
C1237      C1238   1.424       .  A
C1237      C1242   1.407       .  A
C1238      C1239   1.414       .  A
C1239      C1240   1.393       .  A
C1239      H1248   1.077       .  S
C1240      C1241   1.400       .  A
C1240      H1249   1.084       .  S
C1241      C1242   1.398       .  A
C1242      H1250   1.084       .  S
C1251      C1252   1.400       .  A
C1251      C1256   1.405       .  A
C1252      C1253   1.395       .  A
C1252      H1265   1.083       .  S
C1253      C1254   1.415       .  A
C1253      H1266   1.077       .  S
C1254      C1260   1.431       .  A
C1254      C1255   1.422       .  A
C1255      C1257   1.401       .  A
C1255      C1256   1.408       .  A
C1256      H1267   1.084       .  S
C1257      C1258   1.392       .  A
C1257      H1268   1.084       .  S
C1258      C1259   1.400       .  A
C1258      H1269   1.084       .  S
C1259      C1260   1.423       .  A
C1259      C1264   1.409       .  A
C1260      C1261   1.414       .  A
C1261      C1262   1.394       .  A
C1261      H1270   1.077       .  S
C1262      C1263   1.399       .  A
C1262      H1271   1.084       .  S
C1263      C1264   1.402       .  A
C1264      H1272   1.084       .  S
C1273      C1274   1.401       .  A
C1273      C1278   1.404       .  A
C1274      C1275   1.396       .  A
C1274      H1287   1.083       .  S
C1275      C1276   1.415       .  A
C1275      H1288   1.077       .  S
C1276      C1282   1.431       .  A
C1276      C1277   1.422       .  A
C1277      C1279   1.401       .  A
C1277      C1278   1.408       .  A
C1278      H1289   1.084       .  S
C1279      C1280   1.392       .  A
C1279      H1290   1.084       .  S
C1280      C1281   1.400       .  A
C1280      H1291   1.084       .  S
C1281      C1282   1.424       .  A
C1281      C1286   1.409       .  A
C1282      C1283   1.414       .  A
C1283      C1284   1.394       .  A
C1283      H1292   1.077       .  S
C1284      C1285   1.397       .  A
C1284      H1293   1.084       .  S
C1285      C1286   1.399       .  A
C1286      H1294   1.084       .  S
C1295      C1296   1.402       .  A
C1295      C1300   1.404       .  A
C1296      C1297   1.395       .  A
C1296      H1309   1.083       .  S
C1297      C1298   1.414       .  A
C1297      H1310   1.077       .  S
C1298      C1304   1.431       .  A
C1298      C1299   1.423       .  A
C1299      C1301   1.400       .  A
C1299      C1300   1.409       .  A
C1300      H1311   1.084       .  S
C1301      C1302   1.392       .  A
C1301      H1312   1.084       .  S
C1302      C1303   1.400       .  A
C1302      H1313   1.084       .  S
C1303      C1304   1.423       .  A
C1303      C1308   1.407       .  A
C1304      C1305   1.415       .  A
C1305      C1306   1.395       .  A
C1305      H1314   1.077       .  S
C1306      C1307   1.398       .  A
C1306      H1315   1.084       .  S
C1307      C1308   1.401       .  A
C1308      H1316   1.084       .  S
C1317      C1318   1.401       .  A
C1317      C1322   1.401       .  A
C1318      C1319   1.403       .  A
C1318      H1331   1.083       .  S
C1319      C1320   1.418       .  A
C1319      H1332   1.078       .  S
C1320      C1326   1.436       .  A
C1320      C1321   1.422       .  A
C1321      C1323   1.399       .  A
C1321      C1322   1.404       .  A
C1322      H1333   1.085       .  S
C1323      C1324   1.388       .  A
C1323      H1334   1.084       .  S
C1324      C1325   1.399       .  A
C1324      H1335   1.084       .  S
C1325      C1326   1.423       .  A
C1325      C1330   1.406       .  A
C1326      C1327   1.415       .  A
C1327      C1328   1.402       .  A
C1327      H1336   1.078       .  S
C1328      C1329   1.405       .  A
C1328      H1337   1.083       .  S
C1329      C1330   1.402       .  A
C1330      H1338   1.084       .  S
C1339      C1340   1.398       .  A
C1339      C1344   1.404       .  A
C1340      C1341   1.393       .  A
C1340      H1353   1.084       .  S
C1341      C1342   1.414       .  A
C1341      H1354   1.077       .  S
C1342      C1348   1.432       .  A
C1342      C1343   1.424       .  A
C1343      C1345   1.402       .  A
C1343      C1344   1.415       .  A
C1344      H1355   1.084       .  S
C1345      C1346   1.396       .  A
C1345      H1356   1.084       .  S
C1346      C1347   1.402       .  A
C1346      H1357   1.084       .  S
C1347      C1348   1.422       .  A
C1347      C1352   1.414       .  A
C1348      C1349   1.414       .  A
C1349      C1350   1.394       .  A
C1349      H1358   1.077       .  S
C1350      C1351   1.402       .  A
C1350      H1359   1.083       .  S
C1351      C1352   1.408       .  A
C1352      H1360   1.084       .  S
C1361      C1362   1.403       .  A
C1361      C1366   1.401       .  A
C1362      C1363   1.398       .  A
C1362      H1375   1.083       .  S
C1363      C1364   1.415       .  A
C1363      H1376   1.077       .  S
C1364      C1370   1.430       .  A
C1364      C1365   1.423       .  A
C1365      C1367   1.398       .  A
C1365      C1366   1.402       .  A
C1366      H1377   1.084       .  S
C1367      C1368   1.387       .  A
C1367      H1378   1.084       .  S
C1368      C1369   1.398       .  A
C1368      H1379   1.084       .  S
C1369      C1370   1.422       .  A
C1369      C1374   1.400       .  A
C1370      C1371   1.417       .  A
C1371      C1372   1.399       .  A
C1371      H1380   1.077       .  S
C1372      C1373   1.399       .  A
C1372      H1381   1.083       .  S
C1373      C1374   1.399       .  A
C1374      H1382   1.085       .  S
C1383      C1384   1.399       .  A
C1383      C1388   1.399       .  A
C1384      C1385   1.400       .  A
C1384      H1397   1.083       .  S
C1385      C1386   1.417       .  A
C1385      H1398   1.077       .  S
C1386      C1392   1.432       .  A
C1386      C1387   1.423       .  A
C1387      C1389   1.399       .  A
C1387      C1388   1.403       .  A
C1388      H1399   1.085       .  S
C1389      C1390   1.388       .  A
C1389      H1400   1.084       .  S
C1390      C1391   1.399       .  A
C1390      H1401   1.084       .  S
C1391      C1392   1.423       .  A
C1391      C1396   1.405       .  A
C1392      C1393   1.415       .  A
C1393      C1394   1.399       .  A
C1393      H1402   1.077       .  S
C1394      C1395   1.402       .  A
C1394      H1403   1.083       .  S
C1395      C1396   1.402       .  A
C1396      H1404   1.084       .  S
C1405      C1406   1.405       .  A
C1405      C1410   1.401       .  A
C1406      C1407   1.404       .  A
C1406      H1419   1.083       .  S
C1407      C1408   1.417       .  A
C1407      H1420   1.078       .  S
C1408      C1414   1.437       .  A
C1408      C1409   1.423       .  A
C1409      C1411   1.398       .  A
C1409      C1410   1.405       .  A
C1410      H1421   1.084       .  S
C1411      C1412   1.387       .  A
C1411      H1422   1.084       .  S
C1412      C1413   1.398       .  A
C1412      H1423   1.084       .  S
C1413      C1414   1.423       .  A
C1413      C1418   1.404       .  A
C1414      C1415   1.418       .  A
C1415      C1416   1.405       .  A
C1415      H1424   1.078       .  S
C1416      C1417   1.402       .  A
C1416      H1425   1.083       .  S
C1417      C1418   1.398       .  A
C1418      H1426   1.085       .  S
C1427      C1428   1.402       .  A
C1427      C1432   1.404       .  A
C1428      C1429   1.394       .  A
C1428      H1441   1.083       .  S
C1429      C1430   1.413       .  A
C1429      H1442   1.077       .  S
C1430      C1436   1.431       .  A
C1430      C1431   1.423       .  A
C1431      C1433   1.400       .  A
C1431      C1432   1.409       .  A
C1432      H1443   1.084       .  S
C1433      C1434   1.392       .  A
C1433      H1444   1.084       .  S
C1434      C1435   1.400       .  A
C1434      H1445   1.084       .  S
C1435      C1436   1.423       .  A
C1435      C1440   1.408       .  A
C1436      C1437   1.415       .  A
C1437      C1438   1.395       .  A
C1437      H1446   1.077       .  S
C1438      C1439   1.399       .  A
C1438      H1447   1.084       .  S
C1439      C1440   1.401       .  A
C1440      H1448   1.084       .  S
