geometry optimzed in LAMMPS
_audit_creation_date              2020-11-30 
_audit_creation_method            'lammps2cif' 
_symmetry_space_group_name_H-M    'P1' 
_symmetry_Int_Tables_number       1 
_symmetry_cell_setting            triclinic 
loop_ 
_symmetry_equiv_pos_as_xyz 
  x,y,z 
_cell_length_a                    38.59491033 
_cell_length_b                    38.685019153262516 
_cell_length_c                    27.96703311514557 
_cell_angle_alpha                 89.07244708669249 
_cell_angle_beta                  88.7658314726685 
_cell_angle_gamma                 96.24384192176564 
loop_ 
_atom_site_label 
_atom_site_type_symbol 
_atom_site_fract_x 
_atom_site_fract_y 
_atom_site_fract_z 
_atom_site_charge 
C1          C  0.87759012  0.37014137  0.29486328     0.30200
C2          C  0.87714955  0.37034764  0.06530883     0.30200
C3          C  0.91280237  0.38074048  0.32065959    -0.06000
C4          C  0.85413826  0.39513884  0.32016148    -0.06800
C5          C  0.86511449  0.33615784  0.32339423    -0.06700
C6          C  0.91154974  0.38133258  0.03482372    -0.06000
C7          C  0.85290688  0.39462913  0.03986087    -0.06800
C8          C  0.86450259  0.33561035  0.03969703    -0.06700
C9          C  0.93514857  0.41011142  0.04021274    -0.32100
N10         N  0.95587597  0.41774571  0.00124296     0.14400
C11         C  0.94452435  0.39846887  0.30588400    -0.32100
H12         H  0.95243115  0.40452589  0.26919149     0.16400
C13         C  0.82160075  0.40614659  0.05432930    -0.31000
N14         N  0.80250450  0.41031373  0.34449499     0.13200
C15         C  0.82272378  0.40530669  0.30571869    -0.31000
C16         C  0.86021987  0.30103516  0.05390686    -0.31300
N17         N  0.85219842  0.28227121  0.35203836     0.13700
H18         H  0.86290537  0.29128539  0.08980689     0.16300
C19         C  0.85715507  0.30193861  0.31132330    -0.31300
H20         H  0.85789875  0.29159991  0.27565782     0.16300
H21         H  0.81358878  0.40536749  0.26950132     0.16300
H22         H  0.92742778  0.43139052  0.06002262     0.16400
H23         H  0.81161166  0.40611882  0.09058947     0.16300
C24         C  0.87911250  0.36916013  0.12848854     0.30200
C25         C  0.87741375  0.36899885  0.23354914     0.30200
C26         C  0.88709263  0.40432212  0.15543382    -0.06000
C27         C  0.84535605  0.35385282  0.15604031    -0.06800
C28         C  0.90553851  0.34831822  0.15526177    -0.06700
C29         C  0.88369233  0.40485983  0.20710505    -0.06000
C30         C  0.84418746  0.35370077  0.20721010    -0.06800
C31         C  0.90492110  0.34833965  0.20713491    -0.06700
C32         C  0.90377283  0.43439580  0.22272121    -0.32100
N33         N  0.92332668  0.44809204  0.18534558     0.14400
C34         C  0.91599140  0.42776106  0.14768284    -0.32100
H35         H  0.93747168  0.42046175  0.12710950     0.16400
C36         C  0.80945346  0.34625243  0.22049019    -0.31000
N37         N  0.79006826  0.34251995  0.18057108     0.13200
C38         C  0.81188988  0.34557378  0.14177972    -0.31000
C39         C  0.91817242  0.31797077  0.22103336    -0.31300
N40         N  0.92665650  0.30012551  0.18188690     0.13700
H41         H  0.91749132  0.30736335  0.25706156     0.16300
C42         C  0.91951281  0.31850332  0.14225591    -0.31300
H43         H  0.92040833  0.30860723  0.10639023     0.16300
H44         H  0.80349388  0.34612482  0.10538468     0.16300
H45         H  0.90760391  0.44213736  0.25932681     0.16400
H46         H  0.79853505  0.34749203  0.25621589     0.16300
C47         C  0.52076252  0.89200647  0.06425178     0.30200
C48         C  0.51368543  0.88730803  0.29316719     0.30200
C49         C  0.51831416  0.92700484  0.03619811    -0.06000
C50         C  0.55251619  0.87951725  0.03646868    -0.06800
C51         C  0.49066803  0.86946113  0.03963274    -0.06700
C52         C  0.51389664  0.92253630  0.31973326    -0.06000
C53         C  0.55261633  0.87988385  0.98498268    -0.06800
C54         C  0.49023462  0.86872477  0.98821861    -0.06700
C55         C  0.49782643  0.95121631  0.30655803    -0.32100
N56         N  0.49255434  0.97253449  0.00935296     0.14400
C57         C  0.50304626  0.95613242  0.04912339    -0.32100
H58         H  0.49633089  0.96221626  0.08544911     0.16400
C59         C  0.57452193  0.86208934  0.30547375    -0.31000
N60         N  0.60752554  0.87853872  0.01016122     0.13200
C61         C  0.58642733  0.87756387  0.04968513    -0.31000
C62         C  0.46475228  0.83433283  0.30607850    -0.31300
N63         N  0.46216491  0.81954368  0.01755819     0.13700
H64         H  0.46458753  0.82422644  0.27035931     0.16300
C65         C  0.47195891  0.83916892  0.05541938    -0.31300
H66         H  0.46978505  0.82981244  0.09190642     0.16300
H67         H  0.59573972  0.87836031  0.08584120     0.16300
H68         H  0.49052339  0.95680002  0.27048490     0.16400
H69         H  0.58512364  0.86361905  0.26926489     0.16300
C70         C  0.52046955  0.89113464  0.12637164     0.30200
C71         C  0.51683434  0.88832722  0.23156947     0.30200
C72         C  0.48613347  0.89834691  0.15274814    -0.06000
C73         C  0.52614784  0.85641493  0.15308731    -0.06800
C74         C  0.54697001  0.91644622  0.15444198    -0.06700
C75         C  0.48443783  0.89695659  0.20383736    -0.06000
C76         C  0.52417044  0.85480576  0.20439977    -0.06800
C77         C  0.54517929  0.91496018  0.20612037    -0.06700
C78         C  0.45299804  0.90759686  0.21744694    -0.32100
N79         N  0.43601474  0.91643979  0.17771839     0.14400
C80         C  0.45553587  0.90991713  0.13836545    -0.32100
H81         H  0.44924798  0.91541519  0.10179321     0.16400
C82         C  0.52284135  0.81993178  0.21717092    -0.31000
N83         N  0.52303431  0.80080188  0.17695701     0.13200
C84         C  0.52612344  0.82274092  0.13852738    -0.31000
C85         C  0.57742390  0.92924625  0.22114055    -0.31300
N86         N  0.59834596  0.93934768  0.18263745     0.13700
H87         H  0.58624992  0.92880619  0.25748438     0.16300
C88         C  0.58017346  0.93177207  0.14236254    -0.31300
H89         H  0.59153275  0.93444852  0.10667293     0.16300
H90         H  0.52536663  0.81464466  0.10234260     0.16300
H91         H  0.44443787  0.91099708  0.25391547     0.16400
H92         H  0.51914956  0.80888183  0.25273460     0.16300
O93         O  0.01742482  0.97372456  0.30497845    -0.80700
O94         O  0.88089892  0.96512799  0.05527022    -0.65400
O95         O  0.98164492  0.97516140  0.03544973    -1.12000
C96         C  0.95737400  0.84952937  0.01547412     1.06200
O97         O  0.88172293  0.91960849  0.10412860    -0.78600
O98         O  0.94765299  0.89138048  0.11649899    -0.66200
Ni99       Ni  0.98307097  0.00523831  0.32006630     1.34900
C100        C  0.97211967  0.91512437  0.10757880     0.84900
O101        O  0.93079167  0.02135980  0.05177831    -0.79200
O102        O  0.95443889  0.04077874  0.33703609    -0.89400
C103        C  0.86470775  0.93899570  0.07779920     0.84500
O104        O  0.94861337  0.99188476  0.27514605    -0.67600
O105        O  0.93201917  0.85100593  0.04499442    -0.86900
C106        C  0.93137268  0.96252027  0.27804962     0.85300
C107        C  0.92263340  0.04219261  0.34887791     1.06900
H108        H  0.89496190  0.91007772  0.33536880     0.38700
O109        O  0.93157326  0.92234871  0.03723317    -1.09600
O110        O  0.99400267  0.91012045  0.07592303    -0.66200
Ni111      Ni  0.98039914  0.92520396  0.01600216     1.26300
O112        O  0.90185548  0.96325132  0.29698732    -0.66500
O113        O  0.97666727  0.87630605  0.99837467    -0.78700
C114        C  0.05185865  0.95540622  0.99505214     0.84700
O115        O  0.02907340  0.92892087  0.99783844    -0.65900
Ni116      Ni  0.90901507  0.88604684  0.07580201     1.27400
Ni117      Ni  0.93117995  0.97163503  0.04758573     1.26100
H118        H  0.99778617  0.98402886  0.05840388     0.39200
O119        O  0.04867317  0.99454669  0.18357795    -0.80700
O120        O  0.88025403  0.96338575  0.18548640    -0.65400
O121        O  0.98069312  0.97971075  0.20374670    -1.12000
C122        C  0.96835933  0.85420755  0.20256283     1.06200
O123        O  0.87037922  0.92079262  0.24104054    -0.78600
O124        O  0.93138084  0.90053323  0.28131867    -0.66200
Ni125      Ni  0.00713760  0.00968859  0.15964684     1.34900
C126        C  0.94914375  0.92966949  0.28039256     0.84900
O127        O  0.92724207  0.02123568  0.19057878    -0.79200
O128        O  0.96754898  0.02973655  0.13398811    -0.89400
C129        C  0.85924174  0.94329177  0.21266669     0.84500
O130        O  0.00021103  0.96705966  0.12979596    -0.67600
O131        O  0.93610570  0.85481621  0.21345127    -0.86900
C132        C  0.97076777  0.95102490  0.12162316     0.85300
C133        C  0.94466925  0.04155148  0.16084327     1.06900
H134        H  0.92105449  0.91826516  0.16677534     0.38700
O135        O  0.93382611  0.92409810  0.19444776    -1.09600
O136        O  0.97998304  0.92891465  0.26581948    -0.66200
Ni137      Ni  0.98516612  0.93061934  0.19919471     1.26300
O138        O  0.94262491  0.96573312  0.12829552    -0.66500
O139        O  0.98960841  0.88168756  0.19700001    -0.78700
C140        C  0.05697664  0.96490403  0.19658180     0.84700
O141        O  0.03523555  0.93790652  0.20420328    -0.65900
Ni142      Ni  0.90493753  0.88914975  0.22805584     1.27400
Ni143      Ni  0.93024599  0.97221069  0.19429663     1.26100
H144        H  0.99252500  0.98740428  0.23198338     0.39200
C145        C  0.02588924  0.52576465  0.28902870     0.30200
C146        C  0.02729421  0.52423047  0.05952652     0.30200
C147        C  0.02111375  0.49134918  0.97889354    -0.06000
C148        C  0.05805750  0.54602992  0.97977014    -0.06800
C149        C  0.99734458  0.54629788  0.98455131    -0.06700
C150        C  0.01965081  0.48966575  0.03073353    -0.06000
C151        C  0.06019843  0.54062087  0.03060971    -0.06800
C152        C  0.99883452  0.54456293  0.03608059    -0.06700
C153        C  0.99242587  0.46413108  0.03903514    -0.32100
N154        N  0.98397511  0.44493847  0.00039790     0.14400
C155        C  0.00142384  0.46130925  0.96273041    -0.32100
H156        H  0.99488831  0.45017405  0.26748149     0.16400
C157        C  0.09409772  0.53343314  0.03510148    -0.31000
N158        N  0.11317907  0.54260522  0.99542702     0.13200
C159        C  0.09156300  0.55130351  0.96143873    -0.31000
C160        C  0.98370956  0.57288110  0.05229907    -0.31300
N161        N  0.97452567  0.59223125  0.01480500     0.13700
H162        H  0.98393940  0.58130372  0.08862019     0.16300
C163        C  0.98223525  0.57606574  0.97391738    -0.31300
H164        H  0.98051325  0.58406509  0.26735566     0.16300
H165        H  0.10017354  0.55022079  0.25825421     0.16300
H166        H  0.97183831  0.46903180  0.06256413     0.16400
H167        H  0.10071873  0.51189913  0.05562988     0.16300
C168        C  0.03019978  0.52431984  0.12319525     0.30200
C169        C  0.02756431  0.52580473  0.22799876     0.30200
C170        C  0.99551040  0.51103904  0.15186303    -0.06000
C171        C  0.05702388  0.50393937  0.15141872    -0.06800
C172        C  0.03892571  0.55989730  0.14834752    -0.06700
C173        C  0.99315977  0.51514627  0.20277690    -0.06000
C174        C  0.05274866  0.50133329  0.20301262    -0.06800
C175        C  0.03848977  0.56045076  0.19968024    -0.06700
C176        C  0.96349519  0.49516281  0.22037938    -0.32100
N177        N  0.95177403  0.47438133  0.18490875     0.14400
C178        C  0.97397851  0.48080797  0.14721217    -0.32100
H179        H  0.98316753  0.45910716  0.12946644     0.16400
C180        C  0.08361310  0.49130709  0.22036854    -0.31000
N181        N  0.10867199  0.49477592  0.18578683     0.13200
C182        C  0.09346771  0.50513698  0.14591457    -0.31000
C183        C  0.04240894  0.59489707  0.21218485    -0.31300
N184        N  0.04427291  0.61496363  0.17176509     0.13700
H185        H  0.04040953  0.60472043  0.24798809     0.16300
C186        C  0.04330316  0.59416186  0.13303942    -0.31300
H187        H  0.04283772  0.60347789  0.09640495     0.16300
H188        H  0.10930457  0.52215546  0.12214936     0.16300
H189        H  0.95407131  0.49270001  0.25709256     0.16400
H190        H  0.08849617  0.48670012  0.25711974     0.16300
C191        C  0.37811015  0.01601691  0.29236678     0.30200
C192        C  0.38429330  0.02040010  0.06457100     0.30200
C193        C  0.41052525  0.00791779  0.32027503    -0.06000
C194        C  0.37027603  0.04924340  0.31917286    -0.06800
C195        C  0.34976449  0.98941409  0.31796099    -0.06700
C196        C  0.41867001  0.01696145  0.03625862    -0.06000
C197        C  0.37325139  0.05316786  0.03804020    -0.06800
C198        C  0.35985516  0.99160817  0.03972568    -0.06700
C199        C  0.44901202  0.00437646  0.04936193    -0.32100
N200        N  0.45912302  0.98863994  0.34620913     0.14400
C201        C  0.44187963  0.99715579  0.30658410    -0.32100
H202        H  0.45018404  0.99342264  0.27010003     0.16400
C203        C  0.37524147  0.08778953  0.05048260    -0.31000
N204        N  0.37111735  0.10366222  0.34342528     0.13200
C205        C  0.37142197  0.08316720  0.30486945    -0.31000
C206        C  0.32836117  0.97440741  0.05524626    -0.31300
N207        N  0.29480521  0.97005571  0.34073166     0.13700
H208        H  0.31802982  0.97399349  0.09155867     0.16300
C209        C  0.31685864  0.97704975  0.30259812    -0.31300
H210        H  0.30842515  0.97741740  0.26603521     0.16300
H211        H  0.37587251  0.09255939  0.26915053     0.16300
H212        H  0.45541840  0.99812351  0.08564815     0.16400
H213        H  0.38046686  0.09805721  0.08538601     0.16300
C214        C  0.38171480  0.01772394  0.23046948     0.30200
C215        C  0.38492308  0.01936878  0.12609487     0.30200
C216        C  0.38137694  0.98254067  0.20379529    -0.06000
C217        C  0.35286541  0.03381945  0.20302393    -0.06800
C218        C  0.41436265  0.03888500  0.20468247    -0.06700
C219        C  0.38279811  0.98346802  0.15219997    -0.06000
C220        C  0.35492533  0.03476007  0.15209742    -0.06800
C221        C  0.41599162  0.03904399  0.15251600    -0.06700
C222        C  0.39913293  0.95527833  0.13853811    -0.32100
N223        N  0.40848007  0.93778500  0.17773135     0.14400
C224        C  0.39705053  0.95365220  0.21712850    -0.32100
H225        H  0.40408067  0.94790690  0.25327994     0.16400
C226        C  0.32361895  0.04214391  0.13636188    -0.31000
N227        N  0.30155783  0.04304212  0.17421174     0.13200
C228        C  0.31945739  0.03976573  0.21495988    -0.31000
C229        C  0.43283404  0.07080057  0.13815499    -0.31300
N230        N  0.43927820  0.09080117  0.17658351     0.13700
H231        H  0.43414233  0.08094250  0.10185940     0.16300
C232        C  0.42979353  0.07155345  0.21659106    -0.31300
H233        H  0.42981816  0.08231147  0.25191564     0.16300
H234        H  0.30735737  0.03601175  0.25009296     0.16300
H235        H  0.40831362  0.95137551  0.10252337     0.16400
H236        H  0.31582452  0.04003705  0.09987981     0.16300
O237        O  0.40657986  0.38006207  0.98941511    -0.80700
O238        O  0.43818782  0.54038286  0.03168338    -0.65400
O239        O  0.42439077  0.44878474  0.98821826    -1.12000
C240        C  0.54875977  0.44896268  0.35270522     1.06200
O241        O  0.48154513  0.54704060  0.31451017    -0.78600
O242        O  0.50140850  0.49436909  0.26548158    -0.66200
Ni243      Ni  0.38576279  0.41838202  0.01426202     1.34900
C244        C  0.48867080  0.46311731  0.26360685     0.84900
O245        O  0.38373290  0.50104083  0.99983463    -0.79200
O246        O  0.36048390  0.45470087  0.03993600    -0.89400
C247        C  0.45683262  0.56319820  0.00674470     0.84500
O248        O  0.41213119  0.41475382  0.06759694    -0.67600
O249        O  0.54781120  0.47951541  0.33433262    -0.86900
C250        C  0.43252849  0.44130407  0.07621547     0.85300
C251        C  0.35747259  0.48341845  0.01842776     1.06900
H252        H  0.48225753  0.50343033  0.04437608     0.38700
O253        O  0.47847034  0.49060500  0.01579010    -1.09600
O254        O  0.49911036  0.43980440  0.28774055    -0.66200
Ni255      Ni  0.47338560  0.44040226  0.00755580     1.26300
O256        O  0.42295984  0.47204002  0.06988996    -0.66500
O257        O  0.52224608  0.43717006  0.02394532    -0.78700
C258        C  0.43629097  0.36885199  0.99342657     0.84700
O259        O  0.46560806  0.38123821  0.33341165    -0.65900
Ni260      Ni  0.51365188  0.51218389  0.32451273     1.27400
Ni261      Ni  0.43099695  0.49487300  0.00864638     1.26100
H262        H  0.41310097  0.44544943  0.29263331     0.39200
O263        O  0.41763344  0.35943688  0.21079858    -0.80700
O264        O  0.45380350  0.52208101  0.14642204    -0.65400
O265        O  0.43187791  0.42164134  0.16711039    -1.12000
C266        C  0.55187896  0.41847377  0.14791162     1.06200
O267        O  0.51122003  0.52714438  0.12490627    -0.78600
O268        O  0.48533269  0.46532500  0.09430104    -0.66200
Ni269      Ni  0.40246570  0.40513851  0.21764829     1.34900
C270        C  0.46813626  0.43697357  0.08884231     0.84900
O271        O  0.39141625  0.47709797  0.15498879    -0.79200
O272        O  0.38171689  0.44836271  0.22344807    -0.89400
C273        C  0.48288503  0.54039014  0.13497138     0.84500
O274        O  0.44603563  0.42229741  0.24092902    -0.67600
O275        O  0.54519246  0.43730536  0.11270602    -0.86900
C276        C  0.45778212  0.45440425  0.24098510     0.85300
C277        C  0.37006490  0.46497876  0.18872943     1.06900
H278        H  0.50322349  0.47917099  0.18723683     0.38700
O279        O  0.49167615  0.46524342  0.16362703    -1.09600
O280        O  0.47849443  0.40972101  0.10678946    -0.66200
Ni281      Ni  0.48106392  0.41554217  0.17404625     1.26300
O282        O  0.44238386  0.47791238  0.22159877    -0.66500
O283        O  0.52918075  0.40991648  0.18023503    -0.78700
C284        C  0.44550937  0.34790790  0.19548275     0.84700
O285        O  0.47230798  0.36714780  0.18141630    -0.65900
Ni286      Ni  0.52665624  0.48128043  0.11912167     1.27400
Ni287      Ni  0.44184639  0.47217397  0.15610562     1.26100
H288        H  0.42155981  0.40591314  0.14417801     0.39200
C289        C  0.41718337  0.18213708  0.18780295    -0.11200
C290        C  0.44689055  0.20137852  0.16808659     0.15300
C291        C  0.47446243  0.18347542  0.15018348     0.02200
C292        C  0.47208517  0.14708727  0.15515415    -0.15600
C293        C  0.44162382  0.12811604  0.17377632    -0.10400
C294        C  0.41289592  0.14626111  0.18624564     0.09000
C295        C  0.44817172  0.23977192  0.16975481     0.10000
S296        S  0.51248347  0.20501132  0.11930304    -0.24700
H297        H  0.49349908  0.13332840  0.14290012     0.20200
S298        S  0.36854476  0.12703854  0.19217282    -0.30400
H299        H  0.39591816  0.19523892  0.20198519     0.10600
C300        C  0.41967479  0.25731168  0.15521604     0.03800
C301        C  0.41907024  0.29232150  0.16589138    -0.12700
C302        C  0.44641927  0.31047728  0.18997958    -0.08400
C303        C  0.47561658  0.29362852  0.20278754     0.07200
C304        C  0.47603283  0.25837401  0.19275882    -0.13500
S305        S  0.38387922  0.23569662  0.12276637    -0.30400
H306        H  0.39750889  0.30594680  0.15451359     0.11500
S307        S  0.51158445  0.31629129  0.23399855    -0.27500
H308        H  0.49756623  0.24487778  0.20442717     0.08700
H309        H  0.37390812  0.09909769  0.16384166     0.27100
H310        H  0.36218246  0.26263898  0.12414859     0.21900
H311        H  0.53290944  0.28902085  0.23434063     0.27200
H312        H  0.49656640  0.23384127  0.10320469     0.16100
C313        C  0.37431440  0.20491015  0.01609204    -0.11200
C314        C  0.40862027  0.21701094  0.00064050     0.15300
C315        C  0.43183016  0.18490830  0.32207611     0.02200
C316        C  0.41855449  0.14983203  0.32715361    -0.15600
C317        C  0.38541329  0.14472210  0.00790571    -0.10400
C318        C  0.36256645  0.16933845  0.01993906     0.09000
C319        C  0.41848965  0.25562794  0.99576926     0.10000
S320        S  0.47667600  0.19402106  0.30201686    -0.24700
H321        H  0.43529827  0.12987362  0.31898253     0.20200
S322        S  0.31818339  0.15717621  0.04039785    -0.30400
H323        H  0.35631681  0.22352611  0.02525849     0.10600
C324        C  0.40202581  0.26928828  0.29501696     0.03800
C325        C  0.40967932  0.30534003  0.29412005    -0.12700
C326        C  0.43464102  0.32974497  0.99122933    -0.08400
C327        C  0.45406248  0.30915147  0.02059549     0.07200
C328        C  0.44562661  0.27252062  0.02274867    -0.13500
S329        S  0.36721852  0.24970600  0.25855529    -0.30400
H330        H  0.39289367  0.32035615  0.27394475     0.11500
S331        S  0.48721308  0.32925418  0.05886216    -0.27500
H332        H  0.45975569  0.25689556  0.04620627     0.08700
H333        H  0.31484779  0.12260115  0.02513072     0.27100
H334        H  0.35581933  0.28064031  0.24077057     0.21900
H335        H  0.49271923  0.29903467  0.08498004     0.27200
H336        H  0.47375162  0.22683335  0.28175171     0.16100
C337        C  0.20688808  0.51912795  0.19575324    -0.11200
C338        C  0.21992451  0.48663332  0.19075823     0.15300
C339        C  0.19476999  0.45696899  0.18685909     0.02200
C340        C  0.15876284  0.46058212  0.18806370    -0.15600
C341        C  0.14602401  0.49309678  0.19084266    -0.10400
C342        C  0.17086056  0.52294530  0.19395384     0.09000
C343        C  0.25914170  0.48390138  0.19160362     0.10000
S344        S  0.20615673  0.41341657  0.17806776    -0.24700
H345        H  0.14023390  0.43767383  0.18468365     0.20200
S346        S  0.15944001  0.56694988  0.19586333    -0.30400
H347        H  0.22498627  0.54207374  0.20102437     0.10600
C348        C  0.28434777  0.50442814  0.16211329     0.03800
C349        C  0.31988320  0.49773698  0.16152951    -0.12700
C350        C  0.33174993  0.47126284  0.19007903    -0.08400
C351        C  0.30649429  0.45177964  0.22080318     0.07200
C352        C  0.27154660  0.45904370  0.22211763    -0.13500
S353        S  0.27197018  0.53932787  0.12472293    -0.30400
H354        H  0.33863966  0.51342441  0.13873187     0.11500
S355        S  0.31598471  0.41573348  0.25816173    -0.27500
H356        H  0.25335432  0.44408276  0.24657093     0.08700
H357        H  0.12437805  0.56089018  0.18389992     0.27100
H358        H  0.30462321  0.54834334  0.10191985     0.21900
H359        H  0.33289515  0.39947895  0.22104134     0.27200
H360        H  0.23785642  0.42294961  0.15323591     0.16100
C361        C  0.28335948  0.53459983  0.97981950    -0.11200
C362        C  0.25485854  0.51547654  0.00297813     0.15300
C363        C  0.26051286  0.48653708  0.03222676     0.02200
C364        C  0.29408282  0.47703509  0.03678313    -0.15600
C365        C  0.32285124  0.49624699  0.01397205    -0.10400
C366        C  0.31718693  0.52591735  0.98551726     0.09000
C367        C  0.21930142  0.52477721  0.99423393     0.10000
S368        S  0.22620780  0.46127265  0.06623458    -0.24700
H369        H  0.29764843  0.45452196  0.05895061     0.20200
S370        S  0.35120380  0.55413253  0.95493571    -0.30400
H371        H  0.27916375  0.55623268  0.95632906     0.10600
C372        C  0.20940367  0.55822473  0.00317765     0.03800
C373        C  0.17433930  0.56388451  0.99885703    -0.12700
C374        C  0.14881734  0.53646062  0.98920048    -0.08400
C375        C  0.15889166  0.50285745  0.98126592     0.07200
C376        C  0.19412187  0.49836541  0.98017056    -0.13500
S377        S  0.24028566  0.59287072  0.02416546    -0.30400
H378        H  0.16613635  0.58915022  0.00644287     0.11500
S379        S  0.12576322  0.45211215  0.31786445    -0.27500
H380        H  0.19805186  0.45934813  0.30663610     0.08700
H381        H  0.36187429  0.52754321  0.92629611     0.27100
H382        H  0.21664489  0.61778349  0.03003631     0.21900
H383        H  0.09507184  0.46619809  0.33024575     0.27200
H384        H  0.20814456  0.48979944  0.07796179     0.16100
C385        C  0.14665622  0.95033460  0.15560992    -0.11200
C386        C  0.16571944  0.97766735  0.17915351     0.15300
C387        C  0.14972747  0.99477592  0.21644077     0.02200
C388        C  0.11403623  0.98814625  0.22416385    -0.15600
C389        C  0.09432344  0.96246662  0.19885046    -0.10400
C390        C  0.11106613  0.94203602  0.16610457     0.09000
C391        C  0.20096653  0.99126193  0.16250566     0.10000
S392        S  0.17316560  0.02761532  0.25231898    -0.24700
H393        H  0.10120853  0.00474717  0.24781563     0.20200
S394        S  0.08749600  0.90757911  0.13366058    -0.30400
H395        H  0.15890048  0.93688290  0.12726365     0.10600
C396        C  0.22935624  0.97225740  0.17017804     0.03800
C397        C  0.26218888  0.99034105  0.17466990    -0.12700
C398        C  0.26710957  0.02671818  0.17018325    -0.08400
C399        C  0.23977072  0.04513998  0.15549622     0.07200
C400        C  0.20687746  0.02697186  0.15064994    -0.13500
S401        S  0.22432901  0.92545673  0.17376378    -0.30400
H402        H  0.28444251  0.97635128  0.18155280     0.11500
S403        S  0.24491402  0.09147455  0.14416116    -0.27500
H404        H  0.18502080  0.04133927  0.14277676     0.08700
H405        H  0.06186719  0.92787709  0.11745031     0.27100
H406        H  0.25775306  0.92169727  0.19090728     0.21900
H407        H  0.27793307  0.09900383  0.16402306     0.27200
H408        H  0.20405188  0.01135567  0.25354246     0.16100
C409        C  0.97829687  0.75688539  0.20229139    -0.11200
C410        C  0.01101825  0.75613853  0.17934999     0.15300
C411        C  0.02907904  0.78798905  0.16273503     0.02200
C412        C  0.01508680  0.81930550  0.17219920    -0.15600
C413        C  0.98208621  0.81991389  0.19487969    -0.10400
C414        C  0.96306843  0.78772733  0.20848892     0.09000
C415        C  0.02340939  0.72111218  0.17224110     0.10000
S416        S  0.06936508  0.79081589  0.12816826    -0.24700
H417        H  0.02972599  0.84341543  0.15995742     0.20200
S418        S  0.91907637  0.78441847  0.23300410    -0.30400
H419        H  0.96422433  0.73272528  0.21535647     0.10600
C420        C  0.05615748  0.71156224  0.18738345     0.03800
C421        C  0.06318159  0.67675807  0.18414836    -0.12700
C422        C  0.03744146  0.65070250  0.17054701    -0.08400
C423        C  0.00436687  0.65987552  0.15847264     0.07200
C424        C  0.99872615  0.69476940  0.15583223    -0.13500
S425        S  0.08888530  0.74063754  0.21592277    -0.30400
H426        H  0.08816631  0.66948279  0.19519034     0.11500
S427        S  0.96681903  0.62850708  0.15232351    -0.27500
H428        H  0.97336450  0.70111673  0.14483731     0.08700
H429        H  0.91118231  0.74830433  0.22833448     0.27100
H430        H  0.06615656  0.76321498  0.23470471     0.21900
H431        H  0.97745730  0.60307177  0.18333125     0.27200
H432        H  0.06358185  0.75767979  0.10813497     0.16100
C433        C  0.21434111  0.96785318  0.04022666    -0.11200
C434        C  0.19882317  0.93767861  0.01845002     0.15300
C435        C  0.20159482  0.93533972  0.31500893     0.02200
C436        C  0.23839959  0.93847610  0.31680921    -0.15600
C437        C  0.27224298  0.95428250  0.01880895    -0.10400
C438        C  0.24985942  0.97793518  0.03563786     0.09000
C439        C  0.16096701  0.93820074  0.00704446     0.10000
S440        S  0.18158691  0.90324451  0.27516593    -0.24700
H441        H  0.25266385  0.91942488  0.29935512     0.20200
S442        S  0.26349990  0.02341095  0.04290726    -0.30400
H443        H  0.19804810  0.98645760  0.05478183     0.10600
C444        C  0.13405212  0.91164249  0.01939834     0.03800
C445        C  0.09910362  0.91698319  0.01043887    -0.12700
C446        C  0.08970531  0.94992024  0.99621180    -0.08400
C447        C  0.08957345  0.98578085  0.33975098     0.07200
C448        C  0.12584077  0.98667117  0.34159873    -0.13500
S449        S  0.14317379  0.87287256  0.05153028    -0.30400
H450        H  0.07876723  0.89627552  0.01906323     0.11500
S451        S  0.07124024  0.02654425  0.34520878    -0.27500
H452        H  0.14061237  0.01199741  0.34122998     0.08700
H453        H  0.29136000  0.02580229  0.00955679     0.27100
H454        H  0.10908294  0.85585697  0.05200979     0.21900
H455        H  0.05972489  0.02698426  0.29790308     0.27200
H456        H  0.15465078  0.92277804  0.26149278     0.16100
C457        C  0.99690206  0.76547309  0.02822287    -0.11200
C458        C  0.97037086  0.74092752  0.01165999     0.15300
C459        C  0.94094590  0.75370740  0.99065498     0.02200
C460        C  0.93812497  0.78960408  0.98933046    -0.15600
C461        C  0.96520458  0.81380465  0.00454692    -0.10400
C462        C  0.99540939  0.80137036  0.02223593     0.09000
C463        C  0.97333435  0.70254595  0.01731244     0.10000
S464        S  0.88052715  0.72136201  0.32651666    -0.24700
H465        H  0.88992286  0.79286087  0.34482621     0.20200
S466        S  0.03160683  0.83077327  0.04078851    -0.30400
H467        H  0.01890214  0.75680181  0.04641972     0.10600
C468        C  0.00336472  0.68730248  0.00193179     0.03800
C469        C  0.00277596  0.65104813  0.00184500    -0.12700
C470        C  0.97320213  0.62916084  0.01694597    -0.08400
C471        C  0.94405543  0.64393373  0.03533922     0.07200
C472        C  0.94481323  0.68031536  0.03654602    -0.13500
S473        S  0.01504198  0.71764693  0.29470038    -0.30400
H474        H  0.02554087  0.63928469  0.98985668     0.11500
S475        S  0.90497379  0.61798040  0.05670451    -0.27500
H476        H  0.92233585  0.69137461  0.05110306     0.08700
H477        H  0.03357066  0.84999253  0.99752907     0.27100
H478        H  0.04139854  0.69543127  0.29010448     0.21900
H479        H  0.91167036  0.58645068  0.03610141     0.27200
H480        H  0.89951567  0.69989944  0.29828714     0.16100
C481        C  0.51431114  0.63757534  0.11829720    -0.11200
C482        C  0.49262141  0.65268705  0.15097520     0.15300
C483        C  0.46439391  0.63093769  0.17275485     0.02200
C484        C  0.46101997  0.59490715  0.16498848    -0.15600
C485        C  0.48466019  0.57937185  0.13543357    -0.10400
C486        C  0.51097215  0.60169414  0.11039487     0.09000
C487        C  0.50039767  0.69088460  0.16042317     0.10000
S488        S  0.43129482  0.64646168  0.21075192    -0.24700
H489        H  0.44021231  0.57868765  0.18371260     0.20200
S490        S  0.54173776  0.58704332  0.06780326    -0.30400
H491        H  0.53456168  0.65404881  0.09884885     0.10600
C492        C  0.53389779  0.70563220  0.17462684     0.03800
C493        C  0.54045280  0.74177065  0.18103744    -0.12700
C494        C  0.51437780  0.76368694  0.17444728    -0.08400
C495        C  0.48074862  0.74897810  0.16184524     0.07200
C496        C  0.47447996  0.71320790  0.15353848    -0.13500
S497        S  0.56858546  0.67879582  0.18548250    -0.30400
H498        H  0.56614220  0.75326929  0.19056391     0.11500
S499        S  0.44460029  0.77437985  0.15605073    -0.27500
H500        H  0.44898622  0.70266190  0.14179502     0.08700
H501        H  0.51915122  0.55972941  0.05016861     0.27100
H502        H  0.59234258  0.70493209  0.20438308     0.21900
H503        H  0.45630047  0.79994909  0.18875038     0.27200
H504        H  0.45125751  0.67583670  0.22782901     0.16100
C505        C  0.68957190  0.97981032  0.20786935    -0.11200
C506        C  0.70974959  0.95261788  0.19610786     0.15300
C507        C  0.69188518  0.92201499  0.17640368     0.02200
C508        C  0.65572549  0.91919867  0.17061096    -0.15600
C509        C  0.63588290  0.94570288  0.18421512    -0.10400
C510        C  0.65310662  0.97650987  0.20258443     0.09000
C511        C  0.74809706  0.95456781  0.20827797     0.10000
S512        S  0.71294116  0.88480087  0.15803914    -0.24700
H513        H  0.64256771  0.89546571  0.15653287     0.20200
S514        S  0.62972192  0.01176454  0.22221935    -0.30400
H515        H  0.70157139  0.00273579  0.22509833     0.10600
C516        C  0.77348757  0.98289800  0.19570661     0.03800
C517        C  0.80927114  0.97848879  0.19787817    -0.12700
C518        C  0.82087130  0.94705970  0.21340051    -0.08400
C519        C  0.79540803  0.92006796  0.22997621     0.07200
C520        C  0.75999471  0.92524659  0.23018224    -0.13500
S521        S  0.76166292  0.02517191  0.17807001    -0.30400
H522        H  0.82841312  0.99964444  0.18688348     0.11500
S523        S  0.80651325  0.87715853  0.24563990    -0.27500
H524        H  0.74095125  0.90482374  0.24422835     0.08700
H525        H  0.59976345  0.00328134  0.19528886     0.27100
H526        H  0.79464503  0.03908115  0.16011742     0.21900
H527        H  0.77241866  0.86072750  0.25280925     0.27200
H528        H  0.74471280  0.90353267  0.14363081     0.16100
C529        C  0.48051042  0.72821475  0.03893497    -0.11200
C530        C  0.44907300  0.70979242  0.02631406     0.15300
C531        C  0.41612086  0.72198424  0.33026146     0.02200
C532        C  0.41985650  0.75861427  0.33175148    -0.15600
C533        C  0.45797445  0.78246609  0.02024090    -0.10400
C534        C  0.48649827  0.76365031  0.03054884     0.09000
C535        C  0.44925843  0.67217722  0.02033044     0.10000
S536        S  0.37699973  0.70124343  0.30430238    -0.24700
H537        H  0.39896862  0.77290448  0.31962770     0.20200
S538        S  0.53190838  0.78053798  0.02510778    -0.30400
H539        H  0.50219568  0.71416493  0.04892615     0.10600
C540        C  0.47343737  0.65243262  0.32034166     0.03800
C541        C  0.47599177  0.61681280  0.32059581    -0.12700
C542        C  0.45215106  0.60030682  0.01216666    -0.08400
C543        C  0.42718434  0.61285770  0.04384040     0.07200
C544        C  0.42627794  0.64884743  0.04755910    -0.13500
S545        S  0.50785534  0.68090450  0.29045342    -0.30400
H546        H  0.49878794  0.60772333  0.30394067     0.11500
S547        S  0.39611728  0.58423143  0.07951417    -0.27500
H548        H  0.40791526  0.65902838  0.07196946     0.08700
H549        H  0.52766424  0.81227703  0.00351988     0.27100
H550        H  0.52333216  0.65485985  0.26606943     0.21900
H551        H  0.38108242  0.61006855  0.10507836     0.27200
H552        H  0.39099287  0.67137707  0.28859482     0.16100
C553        C  0.75957850  0.87989284  0.37256786    -0.11200
C554        C  0.75501903  0.91480851  0.04284480     0.15300
C555        C  0.76713379  0.94607207  0.06633041     0.02200
C556        C  0.80270033  0.95340866  0.07711788    -0.15600
C557        C  0.82673922  0.92935410  0.06865262    -0.10400
C558        C  0.79419383  0.89089846  0.38052222     0.09000
C559        C  0.71732708  0.90495918  0.02946997     0.10000
S560        S  0.73872859  0.97694322  0.08692708    -0.24700
H561        H  0.81156861  0.97788727  0.09348636     0.20200
S562        S  0.82472042  0.85990645  0.36977842    -0.30400
H563        H  0.75286327  0.85412930  0.35852300     0.10600
C564        C  0.67896800  0.90769362  0.33624295     0.03800
C565        C  0.64517820  0.89472543  0.32560367    -0.12700
C566        C  0.64516987  0.88498065  0.01173954    -0.08400
C567        C  0.66502679  0.86243182  0.03693440     0.07200
C568        C  0.70066510  0.87216327  0.04433733    -0.13500
S569        S  0.69679601  0.94857009  0.30992605    -0.30400
H570        H  0.62980321  0.91029216  0.30387253     0.11500
S571        S  0.64602333  0.82116804  0.06161910    -0.27500
H572        H  0.71523065  0.85431309  0.06373845     0.08700
H573        H  0.84282507  0.88128425  0.33463003     0.27100
H574        H  0.66455285  0.96183781  0.30449893     0.21900
H575        H  0.61877935  0.81616360  0.02900783     0.27200
H576        H  0.70792119  0.95413256  0.08970856     0.16100
C577        C  0.90865431  0.12781643  0.18578713    -0.11200
C578        C  0.93691292  0.15233846  0.17246725     0.15300
C579        C  0.96764629  0.13970334  0.15380815     0.02200
C580        C  0.96866386  0.10375395  0.14806667    -0.15600
C581        C  0.93989280  0.07945984  0.16007971    -0.10400
C582        C  0.90921955  0.09221953  0.17800466     0.09000
C583        C  0.93296876  0.19038565  0.17774144     0.10000
S584        S  0.00728432  0.16710679  0.13797824    -0.24700
H585        H  0.99271558  0.09461452  0.13536635     0.20200
S586        S  0.86937459  0.06476974  0.19068589    -0.30400
H587        H  0.88544309  0.13651825  0.20195276     0.10600
C588        C  0.90454236  0.20559053  0.15782487     0.03800
C589        C  0.90312082  0.24148287  0.16058313    -0.12700
C590        C  0.92942657  0.26326775  0.18193727    -0.08400
C591        C  0.95696947  0.24832499  0.20374243     0.07200
C592        C  0.95789852  0.21206833  0.20273278    -0.13500
S593        S  0.86973789  0.18017949  0.12808846    -0.30400
H594        H  0.88125810  0.25294516  0.14597468     0.11500
S595        S  0.99226655  0.27434247  0.23140720    -0.27500
H596        H  0.97903641  0.20085999  0.21995802     0.08700
H597        H  0.87314179  0.04374901  0.15067044     0.27100
H598        H  0.85150088  0.20771889  0.11264023     0.21900
H599        H  0.99046199  0.30432182  0.20284292     0.27200
H600        H  0.99201497  0.19718049  0.12594850     0.16100
C601        C  0.64282638  0.40996529  0.18927877    -0.11200
C602        C  0.65230545  0.38259983  0.16115838     0.15300
C603        C  0.62804269  0.36684233  0.12849914     0.02200
C604        C  0.59565121  0.37964309  0.12399421    -0.15600
C605        C  0.58663310  0.40711640  0.15197286    -0.10400
C606        C  0.61044742  0.42242240  0.18500768     0.09000
C607        C  0.68785496  0.37212259  0.16672426     0.10000
S608        S  0.63556408  0.33000464  0.09225906    -0.24700
H609        H  0.57706404  0.36772147  0.09900712     0.20200
S610        S  0.60115717  0.45774098  0.22304654    -0.30400
H611        H  0.66100463  0.42185108  0.21481938     0.10600
C612        C  0.71751978  0.39592574  0.15624543     0.03800
C613        C  0.75064185  0.38552312  0.16260735    -0.12700
C614        C  0.75513340  0.35169773  0.17806675    -0.08400
C615        C  0.72567164  0.32810308  0.18978843     0.07200
C616        C  0.69227146  0.33875324  0.18482280    -0.13500
S617        S  0.71359250  0.43955928  0.13429983    -0.30400
H618        H  0.77348445  0.40374896  0.15542480     0.11500
S619        S  0.72905739  0.28438313  0.21089886    -0.27500
H620        H  0.66955047  0.32074452  0.19416710     0.08700
H621        H  0.57747499  0.47204475  0.19303651     0.27100
H622        H  0.74940591  0.44983173  0.12667465     0.21900
H623        H  0.76280863  0.28169241  0.19253300     0.27200
H624        H  0.67180815  0.33150801  0.09621934     0.16100
C625        C  0.84166519  0.18618826  0.32991603    -0.11200
C626        C  0.88726370  0.17764433  0.00722247     0.15300
C627        C  0.91008624  0.20612888  0.02346402     0.02200
C628        C  0.89882743  0.23919117  0.02624533    -0.15600
C629        C  0.85603059  0.24585548  0.35462717    -0.10400
C630        C  0.83427508  0.22091383  0.32971536     0.09000
C631        C  0.89799969  0.14143544  0.00588862     0.10000
S632        S  0.95383515  0.20245487  0.04231923    -0.24700
H633        H  0.91658816  0.26061963  0.03869043     0.20200
S634        S  0.79748488  0.23202341  0.29636133    -0.30400
H635        H  0.82555204  0.16711886  0.30986298     0.10600
C636        C  0.87941678  0.11271000  0.03076853     0.03800
C637        C  0.89406217  0.08095545  0.03437573    -0.12700
C638        C  0.90878668  0.07652557  0.34796482    -0.08400
C639        C  0.92463786  0.10536028  0.32030208     0.07200
C640        C  0.91027625  0.13686046  0.32134070    -0.13500
S641        S  0.83701983  0.11568784  0.05801184    -0.30400
H642        H  0.88008377  0.05929901  0.05410206     0.11500
S643        S  0.96317415  0.10450953  0.28293293    -0.27500
H644        H  0.92296396  0.15901064  0.30105532     0.08700
H645        H  0.79172026  0.26164834  0.32260242     0.27100
H646        H  0.83224643  0.08211748  0.07884196     0.21900
H647        H  0.95088939  0.07325436  0.26100302     0.27200
H648        H  0.94574829  0.16978207  0.06488009     0.16100
C649        C  0.70516491  0.39694630  0.02910103    -0.11200
C650        C  0.69288906  0.41932573  0.34327047     0.15300
C651        C  0.71759255  0.44690856  0.32624589     0.02200
C652        C  0.75339560  0.44341110  0.32741749    -0.15600
C653        C  0.76547554  0.41246637  0.34316883    -0.10400
C654        C  0.74039626  0.39105032  0.02850118     0.09000
C655        C  0.65489390  0.42361537  0.34976413     0.10000
S656        S  0.70525491  0.48702387  0.30157252    -0.24700
H657        H  0.77211101  0.46490995  0.31557098     0.20200
S658        S  0.74991222  0.34745981  0.04205834    -0.30400
H659        H  0.68590262  0.37642540  0.04168233     0.10600
C660        C  0.62791588  0.40107025  0.32959154     0.03800
C661        C  0.59291911  0.40818058  0.33499613    -0.12700
C662        C  0.58423246  0.43794185  0.35878386    -0.08400
C663        C  0.61175015  0.47116248  0.04078669     0.07200
C664        C  0.64636368  0.46311376  0.03981956    -0.13500
S665        S  0.63790680  0.36473517  0.29396357    -0.30400
H666        H  0.57246492  0.39178714  0.31785476     0.11500
S667        S  0.60409669  0.51121867  0.06957805    -0.27500
H668        H  0.66613744  0.48052487  0.05676022     0.08700
H669        H  0.78052377  0.34874687  0.01371219     0.27100
H670        H  0.60423112  0.35621509  0.27640121     0.21900
H671        H  0.56779155  0.50559630  0.07333429     0.27200
H672        H  0.67327415  0.47240908  0.28368452     0.16100
C673        C  0.87406937  0.37342751  0.62579860     0.30200
C674        C  0.87678792  0.37160979  0.39935454     0.30200
C675        C  0.90966144  0.38112082  0.65037715    -0.06000
C676        C  0.85178345  0.39932166  0.65162378    -0.06800
C677        C  0.86004604  0.33956200  0.65353900    -0.06700
C678        C  0.91229955  0.38139360  0.37181118    -0.06000
C679        C  0.85339249  0.39572990  0.37187400    -0.06800
C680        C  0.86458015  0.33697182  0.37443727    -0.06700
C681        C  0.94357021  0.39942736  0.38464431    -0.32100
N682        N  0.96252513  0.41079698  0.34464629     0.14400
C683        C  0.93922957  0.40164942  0.63279301    -0.32100
H684        H  0.94725513  0.40589666  0.59572488     0.16400
C685        C  0.82086918  0.40534044  0.38436344    -0.31000
N686        N  0.80019098  0.41509242  0.67529215     0.13200
C687        C  0.82081694  0.41034457  0.63686790    -0.31000
C688        C  0.85557049  0.30342272  0.39027582    -0.31300
N689        N  0.85178850  0.28466081  0.67992244     0.13700
H690        H  0.85421036  0.29442392  0.42711250     0.16300
C691        C  0.85398474  0.30539198  0.64023393    -0.31300
H692        H  0.85561841  0.29593917  0.60417020     0.16300
H693        H  0.81199344  0.41055110  0.60048385     0.16300
H694        H  0.95046108  0.40636066  0.42069766     0.16400
H695        H  0.81006692  0.40579491  0.42017391     0.16300
C696        C  0.87669592  0.37173627  0.46087595     0.30200
C697        C  0.87498913  0.37353942  0.56485303     0.30200
C698        C  0.88370779  0.40788083  0.48541163    -0.06000
C699        C  0.84260814  0.35713186  0.48828084    -0.06800
C700        C  0.90285525  0.35073221  0.48872987    -0.06700
C701        C  0.88276504  0.40876992  0.53656241    -0.06000
C702        C  0.84162798  0.35801571  0.53918578    -0.06800
C703        C  0.90241232  0.35268570  0.54025218    -0.06700
C704        C  0.90047932  0.44033964  0.54871818    -0.32100
N705        N  0.91298013  0.45816038  0.50846091     0.14400
C706        C  0.90207146  0.43899532  0.47007388    -0.32100
H707        H  0.90970533  0.44558768  0.43345209     0.16400
C708        C  0.80705756  0.35043795  0.55319881    -0.31000
N709        N  0.78734521  0.34571078  0.51376336     0.13200
C710        C  0.80893196  0.34840430  0.47464482    -0.31000
C711        C  0.91459525  0.32297283  0.55755561    -0.31300
N712        N  0.91980088  0.30151987  0.52123295     0.13700
H713        H  0.91461305  0.31513393  0.59477848     0.16300
C714        C  0.91323790  0.31810651  0.47963796    -0.31300
H715        H  0.91229283  0.30568523  0.44539383     0.16300
H716        H  0.80025866  0.34776764  0.43843015     0.16300
H717        H  0.90681851  0.44800862  0.58467628     0.16400
H718        H  0.79643740  0.35201696  0.58902841     0.16300
C719        C  0.51193295  0.88589324  0.39767105     0.30200
C720        C  0.51525864  0.88735368  0.62604294     0.30200
C721        C  0.51303437  0.92176673  0.37136153    -0.06000
C722        C  0.54221575  0.87103305  0.37077121    -0.06800
C723        C  0.48073761  0.86549784  0.37132987    -0.06700
C724        C  0.51234765  0.92276399  0.65111433    -0.06000
C725        C  0.54304240  0.87181573  0.31980580    -0.06800
C726        C  0.48161309  0.86606869  0.31928045    -0.06700
C727        C  0.49619877  0.95112110  0.63670931    -0.32100
N728        N  0.48665327  0.96721070  0.34601959     0.14400
C729        C  0.49655971  0.94997152  0.38514142    -0.32100
H730        H  0.48804048  0.95437994  0.42129597     0.16400
C731        C  0.58262256  0.87622150  0.63818173    -0.31000
N732        N  0.59306153  0.85647380  0.34489108     0.13200
C733        C  0.57333551  0.86084151  0.38455620    -0.31000
C734        C  0.46803954  0.83290105  0.64361199    -0.31300
N735        N  0.45522965  0.81451204  0.34547025     0.13700
H736        H  0.46592047  0.82200484  0.60840251     0.16300
C737        C  0.46356652  0.83356785  0.38454525    -0.31300
H738        H  0.46193878  0.82305932  0.42040553     0.16300
H739        H  0.58287821  0.86114786  0.42066219     0.16300
H740        H  0.48895176  0.95635301  0.60047687     0.16400
H741        H  0.59281295  0.87771757  0.60184507     0.16300
C742        C  0.51293315  0.88577649  0.45944964     0.30200
C743        C  0.51427234  0.88637100  0.56434877     0.30200
C744        C  0.47927414  0.89230406  0.48785970    -0.06000
C745        C  0.52126207  0.85253591  0.48678210    -0.06800
C746        C  0.53977795  0.91266758  0.48374575    -0.06700
C747        C  0.47978797  0.89255715  0.53901167    -0.06000
C748        C  0.52214701  0.85238392  0.53809219    -0.06800
C749        C  0.53961553  0.91371894  0.53539051    -0.06700
C750        C  0.44911503  0.90460256  0.55384377    -0.32100
N751        N  0.43072210  0.91246269  0.51477878     0.14400
C752        C  0.44846043  0.90403267  0.47481473    -0.32100
H753        H  0.44121031  0.90897866  0.43846917     0.16400
C754        C  0.52111146  0.81758345  0.55189703    -0.31000
N755        N  0.51850855  0.79758568  0.51234379     0.13200
C756        C  0.51934871  0.81867556  0.47334405    -0.31000
C757        C  0.57199000  0.92892444  0.54755727    -0.31300
N758        N  0.59261852  0.93423889  0.50790547     0.13700
H759        H  0.58143995  0.93190112  0.58344925     0.16300
C760        C  0.57353731  0.92460732  0.46926197    -0.31300
H761        H  0.58460850  0.92243150  0.43374554     0.16300
H762        H  0.51530045  0.80985827  0.43791603     0.16300
H763        H  0.44232433  0.91002284  0.59040958     0.16400
H764        H  0.51942062  0.80724083  0.58800343     0.16300
O765        O  0.04735172  0.99120376  0.66984849    -0.80700
O766        O  0.85554159  0.95915299  0.36849961    -0.65400
O767        O  0.95756193  0.97125863  0.35949328    -1.12000
C768        C  0.93704548  0.84538129  0.36969704     1.06200
O769        O  0.85813980  0.92331828  0.42959629    -0.78600
O770        O  0.91979746  0.89881899  0.44495149    -0.66200
Ni771      Ni  0.00726296  0.01598358  0.66200287     1.34900
C772        C  0.93625340  0.92876631  0.44273516     0.84900
O773        O  0.90176715  0.01554388  0.36089409    -0.79200
O774        O  0.96978048  0.04466082  0.65185106    -0.89400
C775        C  0.84043976  0.93810875  0.39961838     0.84500
O776        O  0.99294459  0.98567477  0.61507894    -0.67600
O777        O  0.90603918  0.84940785  0.38360726    -0.86900
C778        C  0.96226939  0.97050983  0.61670378     0.85300
C779        C  0.94586980  0.05154592  0.68111168     1.06900
H780        H  0.91106491  0.93313819  0.66772113     0.38700
O781        O  0.90845667  0.91779084  0.36214658    -1.09600
O782        O  0.96567215  0.92842397  0.42467837    -0.66200
Ni783      Ni  0.96050349  0.92180510  0.35892282     1.26300
O784        O  0.93688024  0.98490376  0.63540840    -0.66500
O785        O  0.96121777  0.87094396  0.36252363    -0.78700
C786        C  0.03017851  0.95202267  0.33293746     0.84700
O787        O  0.01075166  0.92843454  0.35632965    -0.65900
Ni788      Ni  0.88296142  0.88720245  0.40666492     1.27400
Ni789      Ni  0.90547711  0.96660847  0.36390492     1.26100
H790        H  0.97216065  0.97881240  0.38479849     0.39200
O791        O  0.01058923  0.98256482  0.44387549    -0.80700
O792        O  0.86851801  0.95386000  0.56773716    -0.65400
O793        O  0.96315973  0.97518668  0.51946316    -1.12000
C794        C  0.97053620  0.85590637  0.53135295     1.06200
O795        O  0.86133508  0.89554833  0.57672007    -0.78600
O796        O  0.92775612  0.91938074  0.60230413    -0.66200
Ni797      Ni  0.97529071  0.00930426  0.47067753     1.34900
C798        C  0.95799908  0.93525344  0.60011974     0.84900
O799        O  0.91087571  0.01472732  0.55556567    -0.79200
O800        O  0.94569303  0.04038640  0.49680779    -0.89400
C801        C  0.84906572  0.92503169  0.57239450     0.84500
O802        O  0.93612476  0.99088983  0.43606464    -0.67600
O803        O  0.95225410  0.86012137  0.56902832    -0.86900
C804        C  0.91985322  0.96261633  0.44969910     0.85300
C805        C  0.92461498  0.04190871  0.53199849     1.06900
H806        H  0.89980758  0.91104754  0.51124890     0.38700
O807        O  0.92015216  0.91661281  0.52971895    -1.09600
O808        O  0.98144400  0.92437616  0.57427239    -0.66200
Ni809      Ni  0.96980800  0.92730394  0.50958283     1.26300
O810        O  0.89745699  0.96609510  0.48222600    -0.66500
O811        O  0.97646409  0.87977766  0.49987637    -0.78700
C812        C  0.03074438  0.96487993  0.46750199     0.84700
O813        O  0.01836568  0.94013245  0.49546948    -0.65900
Ni814      Ni  0.90807344  0.88000680  0.57335310     1.27400
Ni815      Ni  0.91534742  0.96494967  0.54459244     1.26100
H816        H  0.98098058  0.98505235  0.53942892     0.39200
C817        C  0.02345667  0.52958099  0.61991023     0.30200
C818        C  0.02683252  0.52407177  0.39295781     0.30200
C819        C  0.01895492  0.48929699  0.31607768    -0.06000
C820        C  0.05915480  0.54248554  0.31354063    -0.06800
C821        C  0.99909026  0.54563762  0.31626317    -0.06700
C822        C  0.01885196  0.48871005  0.36735373    -0.06000
C823        C  0.06094741  0.53752096  0.36443301    -0.06800
C824        C  0.99978242  0.54514273  0.36743763    -0.06700
C825        C  0.00154955  0.45701351  0.38213961    -0.32100
N826        N  0.99002287  0.43863769  0.34337005     0.14400
C827        C  0.00144185  0.45757790  0.30342202    -0.32100
H828        H  0.99448573  0.45546400  0.59386186     0.16400
C829        C  0.09361635  0.52622800  0.36821458    -0.31000
N830        N  0.11290423  0.53356370  0.32822630     0.13200
C831        C  0.09251680  0.54549781  0.29510840    -0.31000
C832        C  0.98223834  0.57247706  0.38198882    -0.31300
N833        N  0.97208781  0.59002642  0.34316811     0.13700
H834        H  0.98048617  0.58124580  0.41814818     0.16300
C835        C  0.98209386  0.57378668  0.30329190    -0.31300
H836        H  0.98239254  0.59061666  0.59871458     0.16300
H837        H  0.09777444  0.55324913  0.58948062     0.16300
H838        H  0.99499252  0.44948442  0.41881698     0.16400
H839        H  0.09898841  0.50461202  0.39009665     0.16300
C840        C  0.02741210  0.52625858  0.45463334     0.30200
C841        C  0.02412553  0.52809733  0.55875267     0.30200
C842        C  0.99204344  0.51364930  0.48133394    -0.06000
C843        C  0.05370156  0.50594717  0.48348488    -0.06800
C844        C  0.03579644  0.56195840  0.47893943    -0.06700
C845        C  0.99027298  0.51513086  0.53217982    -0.06000
C846        C  0.04936960  0.50386142  0.53482041    -0.06800
C847        C  0.03492906  0.56278222  0.53006053    -0.06700
C848        C  0.95814656  0.49826812  0.54634682    -0.32100
N849        N  0.94094562  0.48544932  0.50726310     0.14400
C850        C  0.96079882  0.49595538  0.46767574    -0.32100
H851        H  0.95408851  0.48925512  0.43149138     0.16400
C852        C  0.07982470  0.49379136  0.55279514    -0.31000
N853        N  0.10483388  0.49675294  0.51829041     0.13200
C854        C  0.08997438  0.50714018  0.47824347    -0.31000
C855        C  0.04134203  0.59730052  0.54201639    -0.31300
N856        N  0.04444183  0.61716653  0.50133020     0.13700
H857        H  0.04080495  0.60755810  0.57768810     0.16300
C858        C  0.04205446  0.59598177  0.46297092    -0.31300
H859        H  0.04206415  0.60498114  0.42613658     0.16300
H860        H  0.10567573  0.52438224  0.45434773     0.16300
H861        H  0.94928771  0.49333753  0.58294730     0.16400
H862        H  0.08447752  0.48973593  0.58971185     0.16300
C863        C  0.37735440  0.01652448  0.62711734     0.30200
C864        C  0.37458253  0.01458969  0.39771184     0.30200
C865        C  0.41335437  0.01564756  0.65141804    -0.06000
C866        C  0.36462557  0.04815818  0.65374912    -0.06800
C867        C  0.35613937  0.98646442  0.65635769    -0.06700
C868        C  0.40899984  0.00709422  0.37134607    -0.06000
C869        C  0.36847529  0.04889140  0.37043713    -0.06800
C870        C  0.34771263  0.98873662  0.36995936    -0.06700
C871        C  0.43983183  0.99563817  0.38562561    -0.32100
N872        N  0.46076662  0.99224409  0.67565886     0.14400
C873        C  0.44253951  0.00063931  0.63681072    -0.32100
H874        H  0.44773721  0.99291423  0.60068019     0.16400
C875        C  0.36805117  0.08319453  0.38341794    -0.31000
N876        N  0.36449749  0.10299493  0.67752466     0.13200
C877        C  0.36379884  0.08206199  0.63918822    -0.31000
C878        C  0.31321827  0.97652095  0.38122317    -0.31300
N879        N  0.30625798  0.95988913  0.68636771     0.13700
H880        H  0.30134028  0.97550341  0.41659420     0.16300
C881        C  0.32455701  0.96873256  0.64545047    -0.31300
H882        H  0.31324251  0.96777930  0.61038719     0.16300
H883        H  0.36669694  0.09130255  0.60306703     0.16300
H884        H  0.44651054  0.99060301  0.42218275     0.16400
H885        H  0.36878413  0.09307008  0.41921124     0.16300
C886        C  0.37565152  0.01586475  0.56510205     0.30200
C887        C  0.37504821  0.01481985  0.45991021     0.30200
C888        C  0.37844701  0.98072989  0.53961343    -0.06000
C889        C  0.34281236  0.02666176  0.53901658    -0.06800
C890        C  0.40479819  0.03919889  0.53617766    -0.06700
C891        C  0.37783626  0.98007230  0.48810888    -0.06000
C892        C  0.34330505  0.02701825  0.48764391    -0.06800
C893        C  0.40486720  0.03824400  0.48441973    -0.06700
C894        C  0.39337180  0.95113090  0.47520407    -0.32100
N895        N  0.40405801  0.93491087  0.51493743     0.14400
C896        C  0.39427349  0.95226064  0.55396381    -0.32100
H897        H  0.40197634  0.94733820  0.59008712     0.16400
C898        C  0.31025444  0.03126072  0.47384604    -0.31000
N899        N  0.28881541  0.03092095  0.51283756     0.13200
C900        C  0.30818231  0.02802693  0.55259003    -0.31000
C901        C  0.42136702  0.06990051  0.46859205    -0.31300
N902        N  0.42859729  0.09057614  0.50630852     0.13700
H903        H  0.42358614  0.07912388  0.43195665     0.16300
C904        C  0.42010770  0.07196050  0.54705127    -0.31300
H905        H  0.42101889  0.08311920  0.58216175     0.16300
H906        H  0.29734004  0.02438483  0.58843267     0.16300
H907        H  0.40012702  0.94502561  0.43892131     0.16400
H908        H  0.30174006  0.03134831  0.43761472     0.16300
O909        O  0.40776159  0.37197403  0.32001090    -0.80700
O910        O  0.43724432  0.53269393  0.36565878    -0.65400
O911        O  0.42516580  0.44073962  0.32073641    -1.12000
C912        C  0.54428879  0.44745581  0.67874942     1.06200
O913        O  0.47893695  0.54767273  0.64839247    -0.78600
O914        O  0.49372270  0.49523206  0.59570846    -0.66200
Ni915      Ni  0.38618077  0.40993246  0.34427482     1.34900
C916        C  0.48090886  0.46403119  0.59365318     0.84900
O917        O  0.38388964  0.49301844  0.33020113    -0.79200
O918        O  0.36026463  0.44602052  0.36892182    -0.89400
C919        C  0.45648442  0.55550557  0.34127338     0.84500
O920        O  0.41203453  0.40644829  0.39802122    -0.67600
O921        O  0.54303265  0.47747979  0.65898831    -0.86900
C922        C  0.43091250  0.43371573  0.40810524     0.85300
C923        C  0.35730661  0.47463599  0.34707204     1.06900
H924        H  0.48191361  0.49008845  0.38542677     0.38700
O925        O  0.47810618  0.48140058  0.35441249    -1.09600
O926        O  0.49209963  0.44025327  0.61636539    -0.66200
Ni927      Ni  0.47329025  0.43173874  0.34373019     1.26300
O928        O  0.42012049  0.46382079  0.40211390    -0.66500
O929        O  0.52116625  0.42775138  0.36338669    -0.78700
C930        C  0.43760355  0.36113214  0.32443906     0.84700
O931        O  0.46018450  0.38098204  0.66375752    -0.65900
Ni932      Ni  0.50968553  0.51137600  0.65382368     1.27400
Ni933      Ni  0.43099379  0.48683597  0.34236815     1.26100
H934        H  0.40710379  0.44530238  0.62575299     0.39200
O935        O  0.40910675  0.35972948  0.54331759    -0.80700
O936        O  0.44693769  0.52112179  0.47414309    -0.65400
O937        O  0.42462095  0.42091842  0.49955205    -1.12000
C938        C  0.54666943  0.41814894  0.48754494     1.06200
O939        O  0.50431602  0.52544680  0.45121916    -0.78600
O940        O  0.47622887  0.45823559  0.44697401    -0.66200
Ni941      Ni  0.39454647  0.40574297  0.54962955     1.34900
C942        C  0.46513810  0.43106917  0.42600571     0.84900
O943        O  0.38438308  0.47624514  0.48391541    -0.79200
O944        O  0.37508778  0.44947361  0.55388932    -0.89400
C945        C  0.47621505  0.53898669  0.46190995     0.84500
O946        O  0.43825100  0.42339022  0.57147320    -0.67600
O947        O  0.54186455  0.43650211  0.45081242    -0.86900
C948        C  0.44995203  0.45554109  0.57130918     0.85300
C949        C  0.36331631  0.46489231  0.51820325     1.06900
H950        H  0.49539807  0.47977485  0.51702654     0.38700
O951        O  0.48451892  0.46499745  0.49355885    -1.09600
O952        O  0.47499580  0.40349885  0.44230339    -0.66200
Ni953      Ni  0.47440745  0.41504335  0.50880837     1.26300
O954        O  0.43492160  0.47897607  0.55118386    -0.66500
O955        O  0.52259222  0.41033081  0.51842273    -0.78700
C956        C  0.43771727  0.34792060  0.53163793     0.84700
O957        O  0.46564037  0.36697427  0.52165893    -0.65900
Ni958      Ni  0.52144320  0.48010745  0.44927062     1.27400
Ni959      Ni  0.43440056  0.47150732  0.48606652     1.26100
H960        H  0.41389448  0.40463673  0.47761437     0.39200
C961        C  0.40656376  0.18191735  0.51766084    -0.11200
C962        C  0.43711074  0.20123294  0.50032599     0.15300
C963        C  0.46488226  0.18329857  0.48307191     0.02200
C964        C  0.46181323  0.14681849  0.48615715    -0.15600
C965        C  0.43089368  0.12784178  0.50311199    -0.10400
C966        C  0.40216808  0.14592407  0.51571814     0.09000
C967        C  0.43902628  0.23965093  0.50375831     0.10000
S968        S  0.50439939  0.20482971  0.45584750    -0.24700
H969        H  0.48335538  0.13302865  0.47446658     0.20200
S970        S  0.35811211  0.12596727  0.52466923    -0.30400
H971        H  0.38513915  0.19508945  0.53123881     0.10600
C972        C  0.41204182  0.25830399  0.48687170     0.03800
C973        C  0.41178503  0.29325630  0.49819753    -0.12700
C974        C  0.43824401  0.31042673  0.52509701    -0.08400
C975        C  0.46620292  0.29249932  0.54008297     0.07200
C976        C  0.46613872  0.25724567  0.52942429    -0.13500
S977        S  0.37746902  0.23812452  0.45109091    -0.30400
H978        H  0.39100195  0.30747170  0.48550639     0.11500
S979        S  0.50112967  0.31377357  0.57465798    -0.27500
H980        H  0.48684661  0.24301824  0.54212764     0.08700
H981        H  0.36240172  0.09545494  0.50066053     0.27100
H982        H  0.36671470  0.26906773  0.43223567     0.21900
H983        H  0.51919248  0.28451076  0.58185277     0.27200
H984        H  0.49095842  0.23591500  0.44370109     0.16100
C985        C  0.37517868  0.20067578  0.34761342    -0.11200
C986        C  0.40975617  0.21097825  0.33180175     0.15300
C987        C  0.42316380  0.18561489  0.65637803     0.02200
C988        C  0.41026499  0.15035841  0.65912696    -0.15600
C989        C  0.38379049  0.13991829  0.34175104    -0.10400
C990        C  0.36202632  0.16563653  0.35255564     0.09000
C991        C  0.42093529  0.24893803  0.32483693     0.10000
S992        S  0.46738001  0.19581386  0.63409656    -0.24700
H993        H  0.42698422  0.13096742  0.64837832     0.20200
S994        S  0.31719358  0.15535263  0.37191746    -0.30400
H995        H  0.35790951  0.22026334  0.35525623     0.10600
C996        C  0.39429410  0.26890953  0.63216841     0.03800
C997        C  0.40303605  0.30482793  0.62892942    -0.12700
C998        C  0.43700363  0.32251926  0.32039131    -0.08400
C999        C  0.45707186  0.30200823  0.34886044     0.07200
C1000       C  0.44860487  0.26550680  0.35101319    -0.13500
S1001       S  0.35997593  0.24873629  0.59546381    -0.30400
H1002       H  0.38723848  0.31967138  0.60691084     0.11500
S1003       S  0.49081459  0.32197399  0.38640715    -0.27500
H1004       H  0.46265824  0.24984221  0.37447270     0.08700
H1005       H  0.31166343  0.12277917  0.35017654     0.27100
H1006       H  0.34842862  0.27948783  0.57727793     0.21900
H1007       H  0.50407814  0.29110008  0.40069880     0.27200
H1008       H  0.46533443  0.23052936  0.62098526     0.16100
C1009       C  0.20269588  0.51933407  0.52760710    -0.11200
C1010       C  0.21479150  0.48655442  0.52231971     0.15300
C1011       C  0.18939713  0.45709598  0.51932138     0.02200
C1012       C  0.15367144  0.46141162  0.52062467    -0.15600
C1013       C  0.14180848  0.49430669  0.52340337    -0.10400
C1014       C  0.16697613  0.52378077  0.52655355     0.09000
C1015       C  0.25351525  0.48359923  0.52205522     0.10000
S1016       S  0.19997912  0.41300416  0.51261129    -0.24700
H1017       H  0.13468147  0.43881894  0.51761621     0.20200
S1018       S  0.15640087  0.56800314  0.52957832    -0.30400
H1019       H  0.22138057  0.54196953  0.53215068     0.10600
C1020       C  0.27777073  0.50257238  0.48977081     0.03800
C1021       C  0.31319035  0.49605955  0.48884454    -0.12700
C1022       C  0.32531440  0.47076633  0.51910017    -0.08400
C1023       C  0.30070536  0.45206176  0.55132458     0.07200
C1024       C  0.26618578  0.45997681  0.55399056    -0.13500
S1025       S  0.26415215  0.53511229  0.44935672    -0.30400
H1026       H  0.33152823  0.51081333  0.46442666     0.11500
S1027       S  0.31020227  0.41550809  0.58770716    -0.27500
H1028       H  0.24834058  0.44592852  0.57977763     0.08700
H1029       H  0.12194797  0.56298892  0.51461266     0.27100
H1030       H  0.29546953  0.54104778  0.42232776     0.21900
H1031       H  0.32661450  0.39954154  0.54980915     0.27200
H1032       H  0.23271180  0.42096550  0.48992922     0.16100
C1033       C  0.28140011  0.52087180  0.30252896    -0.11200
C1034       C  0.25355683  0.50299287  0.32866561     0.15300
C1035       C  0.26021174  0.47633357  0.36128097     0.02200
C1036       C  0.29416219  0.46808945  0.36656699    -0.15600
C1037       C  0.32232263  0.48629943  0.34101492    -0.10400
C1038       C  0.31561686  0.51359347  0.30890629     0.09000
C1039       C  0.21785438  0.51225965  0.32113029     0.10000
S1040       S  0.22686470  0.45240010  0.39851645    -0.24700
H1041       H  0.29854045  0.44746544  0.39167150     0.20200
S1042       S  0.34856911  0.54098327  0.27503718    -0.30400
H1043       H  0.27638916  0.54062912  0.27642963     0.10600
C1044       C  0.20921255  0.54655307  0.32679763     0.03800
C1045       C  0.17432511  0.55283760  0.32463046    -0.12700
C1046       C  0.14778765  0.52548487  0.32109487    -0.08400
C1047       C  0.15640009  0.49101680  0.31602982     0.07200
C1048       C  0.19140157  0.48550953  0.31228671    -0.13500
S1049       S  0.24159442  0.58208080  0.34073772    -0.30400
H1050       H  0.16722186  0.57892574  0.32908096     0.11500
S1051       S  0.12382557  0.45715466  0.64754502    -0.27500
H1052       H  0.19613966  0.46418138  0.64329465     0.08700
H1053       H  0.36496916  0.51370522  0.25572773     0.27100
H1054       H  0.21816192  0.60560350  0.35493844     0.21900
H1055       H  0.09354866  0.47052963  0.66348877     0.27200
H1056       H  0.20798515  0.48085322  0.40738591     0.16100
C1057       C  0.12926654  0.96026047  0.46597696    -0.11200
C1058       C  0.14196585  0.99466706  0.47721263     0.15300
C1059       C  0.11734263  0.01958842  0.47860000     0.02200
C1060       C  0.08198614  0.00940020  0.46992209    -0.15600
C1061       C  0.06922171  0.97436402  0.46433093    -0.10400
C1062       C  0.09341025  0.94950894  0.46320211     0.09000
C1063       C  0.18021510  0.00363676  0.48815224     0.10000
S1064       S  0.12770250  0.06401141  0.49675650    -0.24700
H1065       H  0.06367574  0.02869531  0.47227652     0.20200
S1066       S  0.08028018  0.90346813  0.46133138    -0.30400
H1067       H  0.14727066  0.94103203  0.46079973     0.10600
C1068       C  0.19910691  0.98243322  0.51808960     0.03800
C1069       C  0.23429818  0.99302665  0.52797104    -0.12700
C1070       C  0.25137422  0.02448155  0.50989027    -0.08400
C1071       C  0.23253204  0.04607848  0.48177813     0.07200
C1072       C  0.19818094  0.03479109  0.46934116    -0.13500
S1073       S  0.17971951  0.94147286  0.54390604    -0.30400
H1074       H  0.24917432  0.97616909  0.54860729     0.11500
S1075       S  0.25101364  0.08882597  0.46172756    -0.27500
H1076       H  0.18527159  0.05092756  0.44499071     0.08700
H1077       H  0.05019801  0.90576261  0.43454607     0.27100
H1078       H  0.20740124  0.93512894  0.57352766     0.21900
H1079       H  0.27604622  0.09349024  0.49753651     0.27200
H1080       H  0.15085436  0.05605298  0.53246552     0.16100
C1081       C  0.98205135  0.76007773  0.53146219    -0.11200
C1082       C  0.01524724  0.75950102  0.50941714     0.15300
C1083       C  0.03310799  0.79148710  0.49260704     0.02200
C1084       C  0.01908737  0.82272537  0.50272222    -0.15600
C1085       C  0.98586954  0.82278160  0.52439767    -0.10400
C1086       C  0.96631170  0.79080941  0.53518535     0.09000
C1087       C  0.02733733  0.72446598  0.50104763     0.10000
S1088       S  0.07213382  0.79440046  0.45532192    -0.24700
H1089       H  0.03334705  0.84708633  0.49129031     0.20200
S1090       S  0.91977442  0.78851013  0.54541523    -0.30400
H1091       H  0.96732141  0.73594928  0.54343350     0.10600
C1092       C  0.06002116  0.71410831  0.51526157     0.03800
C1093       C  0.06579012  0.67881849  0.51278707    -0.12700
C1094       C  0.03922156  0.65338899  0.49953561    -0.08400
C1095       C  0.00680966  0.66371042  0.48664511     0.07200
C1096       C  0.00225610  0.69882388  0.48392771    -0.13500
S1097       S  0.09468376  0.74297571  0.54026726    -0.30400
H1098       H  0.09051137  0.67080339  0.52369901     0.11500
S1099       S  0.96860796  0.63344202  0.47954866    -0.27500
H1100       H  0.97726335  0.70590248  0.47246758     0.08700
H1101       H  0.91260067  0.75288396  0.53586686     0.27100
H1102       H  0.07366116  0.76717204  0.55893224     0.21900
H1103       H  0.97729572  0.60829140  0.51252752     0.27200
H1104       H  0.06433398  0.76197008  0.43378658     0.16100
C1105       C  0.20172779  0.98783963  0.36070116    -0.11200
C1106       C  0.18233770  0.95878277  0.34076909     0.15300
C1107       C  0.21636964  0.91469066  0.67663548     0.02200
C1108       C  0.25274407  0.92064239  0.67892181    -0.15600
C1109       C  0.25705536  0.96704806  0.33840698    -0.10400
C1110       C  0.23808881  0.99348348  0.35578461     0.09000
C1111       C  0.14272601  0.95606761  0.34343716     0.10000
S1112       S  0.19804519  0.87306478  0.65516679    -0.24700
H1113       H  0.26852459  0.89994824  0.67050464     0.20200
S1114       S  0.25819092  0.03695536  0.36462432    -0.30400
H1115       H  0.18863954  0.00765139  0.37803470     0.10600
C1116       C  0.12112236  0.92406592  0.34929247     0.03800
C1117       C  0.08479572  0.92301484  0.34304808    -0.12700
C1118       C  0.06872217  0.95363828  0.33690987    -0.08400
C1119       C  0.11384602  0.97000642  0.64117488     0.07200
C1120       C  0.14857059  0.96544905  0.64698666    -0.13500
S1121       S  0.13836914  0.88559372  0.37222738    -0.30400
H1122       H  0.06861735  0.89834525  0.34537320     0.11500
S1123       S  0.10375550  0.00096235  0.59619898    -0.27500
H1124       H  0.16818967  0.98197785  0.62647628     0.08700
H1125       H  0.28676201  0.03527158  0.33320997     0.27100
H1126       H  0.10875523  0.86213891  0.36372041     0.21900
H1127       H  0.07280554  0.98148878  0.58216120     0.27200
H1128       H  0.16858698  0.88475214  0.63419678     0.16100
C1129       C  0.97841035  0.75952013  0.37043631    -0.11200
C1130       C  0.95034044  0.73539883  0.35698146     0.15300
C1131       C  0.91824768  0.74831687  0.34703890     0.02200
C1132       C  0.91504304  0.78391483  0.35163715    -0.15600
C1133       C  0.94366013  0.80825755  0.36238808    -0.10400
C1134       C  0.97601131  0.79556434  0.37008237     0.09000
C1135       C  0.95552206  0.69749504  0.35245436     0.10000
S1136       S  0.89784314  0.73161164  0.64105514    -0.24700
H1137       H  0.90764619  0.80405428  0.65137798     0.20200
S1138       S  0.01510788  0.82410506  0.37883481    -0.30400
H1139       H  0.00294730  0.75034694  0.37982889     0.10600
C1140       C  0.98374650  0.68675318  0.32538733     0.03800
C1141       C  0.98770110  0.65130534  0.32151982    -0.12700
C1142       C  0.96424239  0.62565269  0.34398617    -0.08400
C1143       C  0.93550944  0.63591141  0.37005799     0.07200
C1144       C  0.93194191  0.67153319  0.37509724    -0.13500
S1145       S  0.03442541  0.72107053  0.62937438    -0.30400
H1146       H  0.00969342  0.64339753  0.30145634     0.11500
S1147       S  0.90252374  0.60466257  0.39713682    -0.27500
H1148       H  0.91042122  0.67899888  0.39663560     0.08700
H1149       H  0.01307846  0.84118753  0.33433215     0.27100
H1150       H  0.05681533  0.69508177  0.62283201     0.21900
H1151       H  0.90807114  0.57720467  0.36653312     0.27200
H1152       H  0.91775880  0.70944851  0.61540039     0.16100
C1153       C  0.51023869  0.63585659  0.45053229    -0.11200
C1154       C  0.48780782  0.65056113  0.48248802     0.15300
C1155       C  0.45880102  0.62897239  0.50231058     0.02200
C1156       C  0.45448491  0.59338148  0.49192167    -0.15600
C1157       C  0.47869824  0.57795872  0.46304817    -0.10400
C1158       C  0.50674566  0.60021795  0.44130498     0.09000
C1159       C  0.49558483  0.68832741  0.49345059     0.10000
S1160       S  0.42669892  0.64414400  0.54251736    -0.24700
H1161       H  0.43286155  0.57724426  0.50899966     0.20200
S1162       S  0.54062822  0.58604143  0.40312589    -0.30400
H1163       H  0.53153752  0.65238787  0.43331132     0.10600
C1164       C  0.52838038  0.70236233  0.51078983     0.03800
C1165       C  0.53482792  0.73827067  0.51896986    -0.12700
C1166       C  0.50925471  0.76053909  0.51085932    -0.08400
C1167       C  0.47619639  0.74634215  0.49514493     0.07200
C1168       C  0.47013009  0.71086486  0.48531934    -0.13500
S1169       S  0.56219785  0.67486436  0.52342949    -0.30400
H1170       H  0.56019117  0.74932573  0.53046782     0.11500
S1171       S  0.44031159  0.77189432  0.48772825    -0.27500
H1172       H  0.44512575  0.70065912  0.47151525     0.08700
H1173       H  0.52011746  0.55910709  0.38149474     0.27100
H1174       H  0.58311648  0.69931399  0.54997321     0.21900
H1175       H  0.45226019  0.79856766  0.51875199     0.27200
H1176       H  0.44791287  0.67214616  0.56115588     0.16100
C1177       C  0.68484855  0.96443314  0.53687848    -0.11200
C1178       C  0.70169286  0.93409623  0.53086079     0.15300
C1179       C  0.68144197  0.90449777  0.51207633     0.02200
C1180       C  0.64605944  0.90580180  0.50253188    -0.15600
C1181       C  0.62990397  0.93602298  0.50992682    -0.10400
C1182       C  0.64972978  0.96572678  0.52645265     0.09000
C1183       C  0.73928031  0.93352458  0.54561588     0.10000
S1184       S  0.69848614  0.86422217  0.49810571    -0.24700
H1185       H  0.63063847  0.88274991  0.49005121     0.20200
S1186       S  0.63111206  0.00582400  0.53618653    -0.30400
H1187       H  0.69848809  0.98756856  0.55107836     0.10600
C1188       C  0.76572327  0.96176091  0.53737099     0.03800
C1189       C  0.79993203  0.95855374  0.55123990    -0.12700
C1190       C  0.81050809  0.92691941  0.56816779    -0.08400
C1191       C  0.78449643  0.89836376  0.57453072     0.07200
C1192       C  0.74927465  0.90338136  0.56821038    -0.13500
S1193       S  0.75821269  0.00208696  0.50755193    -0.30400
H1194       H  0.81916668  0.98080069  0.54570363     0.11500
S1195       S  0.79503817  0.85481651  0.58741950    -0.27500
H1196       H  0.72943004  0.88273601  0.57907170     0.08700
H1197       H  0.60457897  0.99990477  0.50264407     0.27100
H1198       H  0.79317445  0.01459463  0.49700203     0.21900
H1199       H  0.76102801  0.83778739  0.58506083     0.27200
H1200       H  0.73106040  0.88004860  0.48118594     0.16100
C1201       C  0.47267666  0.72222563  0.36628851    -0.11200
C1202       C  0.44321558  0.70344636  0.34766183     0.15300
C1203       C  0.41796280  0.72250283  0.67862705     0.02200
C1204       C  0.42224889  0.75902107  0.67903122    -0.15600
C1205       C  0.45120612  0.77702961  0.34595122    -0.10400
C1206       C  0.47862790  0.75800120  0.36026745     0.09000
C1207       C  0.44446863  0.66530790  0.34308981     0.10000
S1208       S  0.37647332  0.70155286  0.66044397    -0.24700
H1209       H  0.40053054  0.77340449  0.67063045     0.20200
S1210       S  0.52363561  0.77557430  0.36198605    -0.30400
H1211       H  0.49344098  0.70843962  0.38015516     0.10600
C1212       C  0.47241919  0.65254129  0.65686629     0.03800
C1213       C  0.47310281  0.61686395  0.65389300    -0.12700
C1214       C  0.45038569  0.59285654  0.34256296    -0.08400
C1215       C  0.42078138  0.60564104  0.36424959     0.07200
C1216       C  0.41841815  0.64161810  0.36465350    -0.13500
S1217       S  0.50537446  0.68040209  0.62353924    -0.30400
H1218       H  0.49324068  0.60750462  0.63163892     0.11500
S1219       S  0.38459047  0.57794201  0.39055165    -0.27500
H1220       H  0.39630442  0.65125735  0.38250515     0.08700
H1221       H  0.52021998  0.80463374  0.33343474     0.27100
H1222       H  0.52967193  0.65594015  0.61959271     0.21900
H1223       H  0.40474973  0.56419092  0.42586347     0.27200
H1224       H  0.39032581  0.67516319  0.63462097     0.16100
C1225       C  0.77315205  0.90362839  0.68900277    -0.11200
C1226       C  0.73375210  0.90180716  0.38085132     0.15300
C1227       C  0.74296501  0.93531325  0.39985848     0.02200
C1228       C  0.77820457  0.94717386  0.40476240    -0.15600
C1229       C  0.80384566  0.92531591  0.39487975    -0.10400
C1230       C  0.80857039  0.91094691  0.69783225     0.09000
C1231       C  0.69814459  0.88867689  0.36738294     0.10000
S1232       S  0.71169422  0.96412050  0.41892340    -0.24700
H1233       H  0.78567892  0.97325200  0.41714015     0.20200
S1234       S  0.83468633  0.87535249  0.69188985    -0.30400
H1235       H  0.76432965  0.87830384  0.67524929     0.10600
C1236       C  0.68741278  0.93615406  0.66812208     0.03800
C1237       C  0.65232001  0.92262990  0.66229701    -0.12700
C1238       C  0.62996015  0.86314409  0.34558477    -0.08400
C1239       C  0.64981180  0.84271638  0.37369086     0.07200
C1240       C  0.68398365  0.85539048  0.38359456    -0.13500
S1241       S  0.70156367  0.97943669  0.64575134    -0.30400
H1242       H  0.63406412  0.93877894  0.64694357     0.11500
S1243       S  0.63238000  0.80116352  0.39904062    -0.27500
H1244       H  0.69933049  0.83946656  0.40498354     0.08700
H1245       H  0.86155398  0.89532780  0.66652617     0.27100
H1246       H  0.66829756  0.98913973  0.63610699     0.21900
H1247       H  0.60521597  0.79492410  0.36654104     0.27200
H1248       H  0.68248572  0.93919480  0.42193089     0.16100
C1249       C  0.88602255  0.12785062  0.55940065    -0.11200
C1250       C  0.91509017  0.15225562  0.54693834     0.15300
C1251       C  0.94697642  0.13894258  0.53551958     0.02200
C1252       C  0.94889313  0.10317949  0.53673786    -0.15600
C1253       C  0.91949158  0.07867317  0.54472359    -0.10400
C1254       C  0.88756678  0.09146294  0.55685607     0.09000
C1255       C  0.91243702  0.19099606  0.54545520     0.10000
S1256       S  0.98648235  0.16517036  0.51561264    -0.24700
H1257       H  0.97390015  0.09424666  0.52799785     0.20200
S1258       S  0.84780080  0.06317261  0.56663906    -0.30400
H1259       H  0.86149902  0.13701616  0.56953200     0.10600
C1260       C  0.88750785  0.20625793  0.51783710     0.03800
C1261       C  0.89115214  0.24248207  0.50943369    -0.12700
C1262       C  0.91874573  0.26433179  0.52830438    -0.08400
C1263       C  0.94186649  0.24958692  0.55901599     0.07200
C1264       C  0.93817484  0.21358339  0.56765333    -0.13500
S1265       S  0.85134866  0.18029387  0.49180639    -0.30400
H1266       H  0.87209499  0.25410762  0.48849222     0.11500
S1267       S  0.97761624  0.27509236  0.58666926    -0.27500
H1268       H  0.95747397  0.20301736  0.58911201     0.08700
H1269       H  0.85444720  0.04046221  0.52962315     0.27100
H1270       H  0.83777088  0.20723442  0.46633860     0.21900
H1271       H  0.98217367  0.30116332  0.55077248     0.27200
H1272       H  0.97044185  0.19134622  0.49241169     0.16100
C1273       C  0.63633169  0.40639024  0.53340069    -0.11200
C1274       C  0.64629611  0.37980189  0.50421708     0.15300
C1275       C  0.62270703  0.36543059  0.46976147     0.02200
C1276       C  0.59029398  0.37832697  0.46519676    -0.15600
C1277       C  0.58081334  0.40523833  0.49397098    -0.10400
C1278       C  0.60424702  0.41955962  0.52821176     0.09000
C1279       C  0.68264790  0.37070491  0.50761851     0.10000
S1280       S  0.63175811  0.33116863  0.42975969    -0.24700
H1281       H  0.57237273  0.36747372  0.43864016     0.20200
S1282       S  0.59561090  0.45592996  0.56447488    -0.30400
H1283       H  0.65441047  0.41787170  0.55928883     0.10600
C1284       C  0.71088588  0.39461124  0.49166133     0.03800
C1285       C  0.74485020  0.38545045  0.49395527    -0.12700
C1286       C  0.75163387  0.35294757  0.51205601    -0.08400
C1287       C  0.72367419  0.32933434  0.52957893     0.07200
C1288       C  0.68939999  0.33846316  0.52740900    -0.13500
S1289       S  0.70400057  0.43718962  0.46885174    -0.30400
H1290       H  0.76656416  0.40392667  0.48235894     0.11500
S1291       S  0.73032077  0.28747168  0.55472238    -0.27500
H1292       H  0.66786923  0.32023067  0.54053124     0.08700
H1293       H  0.57465662  0.47147472  0.53174431     0.27100
H1294       H  0.73804931  0.44638728  0.45055845     0.21900
H1295       H  0.76167245  0.28398408  0.52961853     0.27200
H1296       H  0.66737492  0.33077476  0.43796343     0.16100
C1297       C  0.85801282  0.19024313  0.65325971    -0.11200
C1298       C  0.87039400  0.17613033  0.35448409     0.15300
C1299       C  0.89185644  0.20111124  0.37951780     0.02200
C1300       C  0.88448532  0.23547724  0.37932271    -0.15600
C1301       C  0.86234987  0.25012119  0.67973435    -0.10400
C1302       C  0.84454643  0.22257529  0.65454359     0.09000
C1303       C  0.88049520  0.14073100  0.34920968     0.10000
S1304       S  0.93023729  0.19103182  0.41008440    -0.24700
H1305       H  0.90187240  0.25464973  0.39727575     0.20200
S1306       S  0.80498153  0.22712889  0.62309170    -0.30400
H1307       H  0.84426958  0.16945768  0.63347386     0.10600
C1308       C  0.86380234  0.11211848  0.37548441     0.03800
C1309       C  0.87804145  0.08032117  0.37453640    -0.12700
C1310       C  0.93158624  0.08549719  0.67791702    -0.08400
C1311       C  0.95232630  0.11658159  0.66470218     0.07200
C1312       C  0.93732052  0.14775201  0.66297371    -0.13500
S1313       S  0.82509191  0.11624014  0.41134771    -0.30400
H1314       H  0.86542640  0.05848812  0.39535026     0.11500
S1315       S  0.99886063  0.11907675  0.65542951    -0.27500
H1316       H  0.95397664  0.17112808  0.65358120     0.08700
H1317       H  0.79498218  0.25524470  0.64933297     0.27100
H1318       H  0.82290624  0.08324987  0.43385982     0.21900
H1319       H  0.99647679  0.10035003  0.61281360     0.27200
H1320       H  0.91635580  0.15760129  0.42602903     0.16100
C1321       C  0.70519482  0.38803715  0.35768022    -0.11200
C1322       C  0.68966318  0.42040798  0.66962508     0.15300
C1323       C  0.71390720  0.44786139  0.65064778     0.02200
C1324       C  0.74997633  0.44582707  0.65378288    -0.15600
C1325       C  0.76293307  0.41623036  0.67287886    -0.10400
C1326       C  0.74082046  0.38385244  0.35603492     0.09000
C1327       C  0.65133406  0.42400781  0.67609153     0.10000
S1328       S  0.70084739  0.48594842  0.62091399    -0.24700
H1329       H  0.76819812  0.46733180  0.64063550     0.20200
S1330       S  0.75252895  0.34082731  0.36834008    -0.30400
H1331       H  0.68690057  0.36649545  0.37000323     0.10600
C1332       C  0.62414790  0.39880038  0.66169334     0.03800
C1333       C  0.58893580  0.40556600  0.66688559    -0.12700
C1334       C  0.58012857  0.43718178  0.68529908    -0.08400
C1335       C  0.61133802  0.45970470  0.38031648     0.07200
C1336       C  0.64575437  0.45177901  0.37636347    -0.13500
S1337       S  0.63369114  0.35884428  0.63422248    -0.30400
H1338       H  0.56834758  0.38712449  0.65378714     0.11500
S1339       S  0.60523624  0.49892020  0.41233865    -0.27500
H1340       H  0.66605113  0.46886744  0.39273488     0.08700
H1341       H  0.78447822  0.34461696  0.34290038     0.27100
H1342       H  0.60025906  0.34948531  0.61631043     0.21900
H1343       H  0.56898965  0.49664265  0.41305198     0.27200
H1344       H  0.66874363  0.46996729  0.60543942     0.16100
C1345       C  0.87471356  0.37006942  0.96039312     0.30200
C1346       C  0.87336861  0.37389110  0.73061738     0.30200
C1347       C  0.91127396  0.37884130  0.98337483    -0.06000
C1348       C  0.85257120  0.39514089  0.98824652    -0.06800
C1349       C  0.86249835  0.33570683  0.98860431    -0.06700
C1350       C  0.90862029  0.38384231  0.70180483    -0.06000
C1351       C  0.85059593  0.39915111  0.70352785    -0.06800
C1352       C  0.86012450  0.33959461  0.70467076    -0.06700
C1353       C  0.93171477  0.41287063  0.70763563    -0.32100
N1354       N  0.95277228  0.42061876  0.66913044     0.14400
C1355       C  0.94124065  0.39896972  0.96513566    -0.32100
H1356       H  0.94925044  0.40264007  0.92798946     0.16400
C1357       C  0.81812632  0.40934205  0.71543266    -0.31000
N1358       N  0.80308224  0.41374157  0.01544826     0.13200
C1359       C  0.82210134  0.40824555  0.97562232    -0.31000
C1360       C  0.85395294  0.30524964  0.71901562    -0.31300
N1361       N  0.85617292  0.28054068  0.01486148     0.13700
H1362       H  0.85482164  0.29559663  0.75531731     0.16300
C1363       C  0.85615628  0.30141674  0.97543042    -0.31300
H1364       H  0.85549675  0.29202145  0.93922349     0.16300
H1365       H  0.81261647  0.41031780  0.93977330     0.16300
H1366       H  0.92360907  0.43400560  0.72747649     0.16400
H1367       H  0.80704791  0.40970506  0.75099738     0.16300
C1368       C  0.87490716  0.37209152  0.79401215     0.30200
C1369       C  0.87338895  0.37097480  0.89920306     0.30200
C1370       C  0.88513229  0.40674592  0.82163571    -0.06000
C1371       C  0.84036491  0.35871053  0.82166817    -0.06800
C1372       C  0.89976037  0.34917209  0.82061730    -0.06700
C1373       C  0.88154885  0.40705540  0.87328676    -0.06000
C1374       C  0.83938612  0.35796662  0.87293618    -0.06800
C1375       C  0.89944822  0.34934256  0.87225628    -0.06700
C1376       C  0.90169407  0.43654192  0.88924877    -0.32100
N1377       N  0.92195619  0.44990804  0.85222472     0.14400
C1378       C  0.91481674  0.42943224  0.81458986    -0.32100
H1379       H  0.93631453  0.42218394  0.79385592     0.16400
C1380       C  0.80447676  0.35328788  0.88652528    -0.31000
N1381       N  0.78481091  0.35149951  0.84677788     0.13200
C1382       C  0.80645643  0.35325724  0.80781511    -0.31000
C1383       C  0.91239831  0.31923340  0.88682771    -0.31300
N1384       N  0.91899063  0.30004072  0.84839098     0.13700
H1385       H  0.91303973  0.30982832  0.92326552     0.16300
C1386       C  0.91216691  0.31829235  0.80832632    -0.31300
H1387       H  0.91265921  0.30813618  0.77277960     0.16300
H1388       H  0.79794204  0.35377107  0.77162724     0.16300
H1389       H  0.90476228  0.44465631  0.92583832     0.16400
H1390       H  0.79392299  0.35448060  0.92246895     0.16300
C1391       C  0.51564067  0.88892392  0.73087755     0.30200
C1392       C  0.51965271  0.89100760  0.95923899     0.30200
C1393       C  0.51256012  0.92347443  0.70263067    -0.06000
C1394       C  0.54790334  0.87715257  0.70372491    -0.06800
C1395       C  0.48615639  0.86540079  0.70626630    -0.06700
C1396       C  0.51750850  0.92634503  0.98460485    -0.06000
C1397       C  0.54797421  0.87633200  0.65234531    -0.06800
C1398       C  0.48584082  0.86453720  0.65476985    -0.06700
C1399       C  0.50181830  0.95490814  0.97031925    -0.32100
N1400       N  0.48614489  0.96837751  0.67572239     0.14400
C1401       C  0.49643557  0.95202365  0.71553747    -0.32100
H1402       H  0.48921329  0.95778711  0.75179674     0.16400
C1403       C  0.58745899  0.88046127  0.97085239    -0.31000
N1404       N  0.60297692  0.87773929  0.67727429     0.13200
C1405       C  0.58212153  0.87776788  0.71687009    -0.31000
C1406       C  0.47159391  0.83770148  0.97681139    -0.31300
N1407       N  0.45923553  0.81444701  0.68440161     0.13700
H1408       H  0.46981214  0.82668343  0.94162644     0.16300
C1409       C  0.46878907  0.83440569  0.72209958    -0.31300
H1410       H  0.46759123  0.82513834  0.75851205     0.16300
H1411       H  0.59148938  0.88176056  0.75257156     0.16300
H1412       H  0.49378928  0.95966316  0.93429203     0.16400
H1413       H  0.59776288  0.88466442  0.93468416     0.16300
C1414       C  0.51588590  0.88915235  0.79285403     0.30200
C1415       C  0.51736249  0.88942051  0.89755220     0.30200
C1416       C  0.48072246  0.88956386  0.82132589    -0.06000
C1417       C  0.52997317  0.85804053  0.81946711    -0.06800
C1418       C  0.53738921  0.91981987  0.81757317    -0.06700
C1419       C  0.48140042  0.88996957  0.87293636    -0.06000
C1420       C  0.53043783  0.85763944  0.87108868    -0.06800
C1421       C  0.53788585  0.91989802  0.86889119    -0.06700
C1422       C  0.45227621  0.90504290  0.88739468    -0.32100
N1423       N  0.43435294  0.91384151  0.84846134     0.14400
C1424       C  0.45119369  0.90401875  0.80861199    -0.32100
H1425       H  0.44513921  0.91081615  0.77240043     0.16400
C1426       C  0.52724182  0.82256915  0.88445990    -0.31000
N1427       N  0.52484910  0.80265383  0.84494965     0.13200
C1428       C  0.52718853  0.82393186  0.80611057    -0.31000
C1429       C  0.56719636  0.94064603  0.88100667    -0.31300
N1430       N  0.58513805  0.95217702  0.84077507     0.13700
H1431       H  0.57805652  0.94184186  0.91637030     0.16300
C1432       C  0.56701657  0.94022768  0.80224943    -0.31300
H1433       H  0.57769507  0.94123656  0.76609745     0.16300
H1434       H  0.52312239  0.81523248  0.77049345     0.16300
H1435       H  0.44722802  0.91289597  0.92351625     0.16400
H1436       H  0.52331966  0.81216192  0.92037490     0.16300
O1437       O  0.04351131  0.98636004  0.99275509    -0.80700
O1438       O  0.87933602  0.97664099  0.70111057    -0.65400
O1439       O  0.98138198  0.98129039  0.70131927    -1.12000
C1440       C  0.95309305  0.85657427  0.67883531     1.06200
O1441       O  0.87330289  0.93062509  0.75023661    -0.78600
O1442       O  0.93370019  0.89802828  0.76993308    -0.66200
Ni1443     Ni  0.00076182  0.00758395  0.98873963     1.34900
C1444       C  0.95634956  0.92385960  0.76910393     0.84900
O1445       O  0.93233361  0.02908873  0.71145912    -0.79200
O1446       O  0.96062703  0.03321048  0.98371169    -0.89400
C1447       C  0.85982087  0.95192672  0.72291635     0.84500
O1448       O  0.98085075  0.97121568  0.95369967    -0.67600
O1449       O  0.92303921  0.85990100  0.69672770    -0.86900
C1450       C  0.94907974  0.95881866  0.95922830     0.85300
C1451       C  0.94051820  0.04217865  0.01689571     1.06900
H1452       H  0.91403919  0.91714643  0.01476303     0.38700
O1453       O  0.92827573  0.93209384  0.69100240    -1.09600
O1454       O  0.98427439  0.92068406  0.74708274    -0.66200
Ni1455     Ni  0.97903440  0.93218426  0.68254798     1.26300
O1456       O  0.92670184  0.97436090  0.98148069    -0.66500
O1457       O  0.97610445  0.88244342  0.66888377    -0.78700
C1458       C  0.05236834  0.95903548  0.67145097     0.84700
O1459       O  0.02824154  0.93385907  0.67451592    -0.65900
Ni1460     Ni  0.89973299  0.89611251  0.72387664     1.27400
Ni1461     Ni  0.93050838  0.98019324  0.70317780     1.26100
H1462       H  0.99702414  0.98429059  0.72698434     0.39200
O1463       O  0.01922512  0.00491917  0.85510852    -0.80700
O1464       O  0.85658862  0.95516001  0.84364923    -0.65400
O1465       O  0.95172304  0.98070397  0.86933133    -1.12000
C1466       C  0.95756324  0.85764850  0.85964620     1.06200
O1467       O  0.84892060  0.90989524  0.89528975    -0.78600
O1468       O  0.90823717  0.91394713  0.93891725    -0.66200
Ni1469     Ni  0.97618441  0.01635210  0.83112272     1.34900
C1470       C  0.93958533  0.92692643  0.93884847     0.84900
O1471       O  0.89483368  0.01669404  0.85997371    -0.79200
O1472       O  0.93481123  0.03056802  0.80551240    -0.89400
C1473       C  0.83722329  0.93427282  0.87094345     0.84500
O1474       O  0.97524752  0.97773316  0.79487832    -0.67600
O1475       O  0.92988911  0.85774701  0.88624029    -0.86900
C1476       C  0.94872883  0.95893644  0.78211091     0.85300
C1477       C  0.91246884  0.04002712  0.83454144     1.06900
H1478       H  0.90067802  0.91423353  0.82356814     0.38700
O1479       O  0.91320635  0.92126568  0.85133361    -1.09600
O1480       O  0.96255904  0.91517547  0.91495531    -0.66200
Ni1481     Ni  0.96414559  0.93274779  0.85370849     1.26300
O1482       O  0.91832816  0.96822731  0.79047888    -0.66500
O1483       O  0.97336149  0.88549777  0.84063267    -0.78700
C1484       C  0.03301130  0.97640174  0.85634847     0.84700
O1485       O  0.01474532  0.94639425  0.85667294    -0.65900
Ni1486     Ni  0.89053589  0.88586633  0.89074310     1.27400
Ni1487     Ni  0.90381996  0.96829376  0.85647302     1.26100
H1488       H  0.95104142  0.99505621  0.89659933     0.39200
C1489       C  0.02510187  0.52882278  0.95500463     0.30200
C1490       C  0.02422630  0.52818908  0.72477801     0.30200
C1491       C  0.01788395  0.49324679  0.64597992    -0.06000
C1492       C  0.05662423  0.54640690  0.64454281    -0.06800
C1493       C  0.99644554  0.54965447  0.64744486    -0.06700
C1494       C  0.01532545  0.49316339  0.69770642    -0.06000
C1495       C  0.05820576  0.54174646  0.69572467    -0.06800
C1496       C  0.99729551  0.54947405  0.69911650    -0.06700
C1497       C  0.98724412  0.46872806  0.70599210    -0.32100
N1498       N  0.97993643  0.44841112  0.66814758     0.14400
C1499       C  0.99837186  0.46324657  0.63042036    -0.32100
H1500       H  0.99687606  0.45440004  0.92600376     0.16400
C1501       C  0.09097918  0.53110774  0.70017264    -0.31000
N1502       N  0.11045449  0.53819568  0.66026393     0.13200
C1503       C  0.09008290  0.54926322  0.62641157    -0.31000
C1504       C  0.98290594  0.57888315  0.71313319    -0.31300
N1505       N  0.97486467  0.59758445  0.67427249     0.13700
H1506       H  0.98228024  0.58806241  0.74903432     0.16300
C1507       C  0.98276240  0.57998320  0.63460952    -0.31300
H1508       H  0.98158190  0.58788452  0.93873491     0.16300
H1509       H  0.09890379  0.55548724  0.92443751     0.16300
H1510       H  0.96606884  0.47461413  0.72824876     0.16400
H1511       H  0.09617940  0.50965750  0.72232646     0.16300
C1512       C  0.02668481  0.52914591  0.78867554     0.30200
C1513       C  0.02489683  0.53025716  0.89375154     0.30200
C1514       C  0.99221019  0.51526294  0.81777778    -0.06000
C1515       C  0.05368707  0.50902238  0.81653011    -0.06800
C1516       C  0.03521593  0.56484904  0.81413835    -0.06700
C1517       C  0.99014060  0.51924613  0.86890561    -0.06000
C1518       C  0.04963854  0.50621802  0.86804476    -0.06800
C1519       C  0.03526963  0.56516673  0.86555533    -0.06700
C1520       C  0.96092637  0.49843225  0.88670041    -0.32100
N1521       N  0.94960122  0.47718492  0.85143262     0.14400
C1522       C  0.97134540  0.48444770  0.81338028    -0.32100
H1523       H  0.98037108  0.46328133  0.79428015     0.16400
C1524       C  0.08023303  0.49635863  0.88541607    -0.31000
N1525       N  0.10510089  0.50014189  0.85086353     0.13200
C1526       C  0.09004989  0.51066921  0.81097457    -0.31000
C1527       C  0.03941931  0.59961318  0.87841721    -0.31300
N1528       N  0.04092064  0.62002599  0.83831419     0.13700
H1529       H  0.03797817  0.60923039  0.91437808     0.16300
C1530       C  0.03961439  0.59932271  0.79934060    -0.31300
H1531       H  0.03921945  0.60889273  0.76283766     0.16300
H1532       H  0.10567796  0.52776390  0.78674679     0.16300
H1533       H  0.95184752  0.49561786  0.92354496     0.16400
H1534       H  0.08508951  0.49207278  0.92225686     0.16300
C1535       C  0.38292523  0.02044423  0.95991067     0.30200
C1536       C  0.37973599  0.01790086  0.73183074     0.30200
C1537       C  0.41821094  0.01703500  0.98505049    -0.06000
C1538       C  0.37203154  0.05286409  0.98672925    -0.06800
C1539       C  0.35937862  0.99138130  0.98823343    -0.06700
C1540       C  0.41441806  0.01647925  0.70285307    -0.06000
C1541       C  0.36570786  0.04882744  0.70503478    -0.06800
C1542       C  0.35712634  0.98722863  0.70811105    -0.06700
C1543       C  0.44407883  0.00225035  0.71552102    -0.32100
N1544       N  0.46671063  0.99589108  0.00946840     0.14400
C1545       C  0.44856806  0.00426222  0.97038204    -0.32100
H1546       H  0.45485504  0.99808959  0.93392435     0.16400
C1547       C  0.36492631  0.08305557  0.71759730    -0.31000
N1548       N  0.37464397  0.10792473  0.01053194     0.13200
C1549       C  0.37226389  0.08697868  0.97221351    -0.31000
C1550       C  0.32569134  0.97039698  0.72417790    -0.31300
N1551       N  0.30936989  0.96345806  0.01702361     0.13700
H1552       H  0.31550224  0.97046660  0.76049082     0.16300
C1553       C  0.32797863  0.97327098  0.97646359    -0.31300
H1554       H  0.31737762  0.97154189  0.94100940     0.16300
H1555       H  0.37412349  0.09620885  0.93599651     0.16300
H1556       H  0.45055308  0.99603677  0.75177514     0.16400
H1557       H  0.36858220  0.09341413  0.75287737     0.16300
C1558       C  0.38222229  0.02028952  0.89819653     0.30200
C1559       C  0.38119945  0.01889064  0.79347325     0.30200
C1560       C  0.38583217  0.98529970  0.87292541    -0.06000
C1561       C  0.34918475  0.03050236  0.87243204    -0.06800
C1562       C  0.41097116  0.04415590  0.86906895    -0.06700
C1563       C  0.38522631  0.98455423  0.82166158    -0.06000
C1564       C  0.34912265  0.03005917  0.82125296    -0.06800
C1565       C  0.41038540  0.04348680  0.81728361    -0.06700
C1566       C  0.39978528  0.95511955  0.80862576    -0.32100
N1567       N  0.40975320  0.93847467  0.84846111     0.14400
C1568       C  0.40075418  0.95632596  0.88748285    -0.32100
H1569       H  0.40794694  0.95098982  0.92372159     0.16400
C1570       C  0.31562005  0.03264802  0.80801036    -0.31000
N1571       N  0.29486434  0.03358589  0.84746322     0.13200
C1572       C  0.31495969  0.03248111  0.88678366    -0.31000
C1573       C  0.42516423  0.07589562  0.80146979    -0.31300
N1574       N  0.43330693  0.09612307  0.83945349     0.13700
H1575       H  0.42525050  0.08575057  0.76511046     0.16300
C1576       C  0.42621122  0.07690153  0.88002558    -0.31300
H1577       H  0.42819797  0.08757115  0.91537912     0.16300
H1578       H  0.30478186  0.02992210  0.92311697     0.16300
H1579       H  0.40606469  0.94867729  0.77228325     0.16400
H1580       H  0.30640202  0.02989104  0.77231890     0.16300
O1581       O  0.40185356  0.37199128  0.65439257    -0.80700
O1582       O  0.43396074  0.53278191  0.69828449    -0.65400
O1583       O  0.42009172  0.44087224  0.65324105    -1.12000
C1584       C  0.54938041  0.45856254  0.01181651     1.06200
O1585       O  0.47966482  0.55480726  0.97607491    -0.78600
O1586       O  0.49799986  0.50149015  0.92510305    -0.66200
Ni1587     Ni  0.38146733  0.41055839  0.67885880     1.34900
C1588       C  0.48528723  0.47012162  0.92463459     0.84900
O1589       O  0.37998102  0.49385236  0.66328962    -0.79200
O1590       O  0.35630553  0.44730047  0.70317705    -0.89400
C1591       C  0.45395855  0.55580826  0.67547085     0.84500
O1592       O  0.40868649  0.40764698  0.73186321    -0.67600
O1593       O  0.54763494  0.48836902  0.99143908    -0.86900
C1594       C  0.42743411  0.43525655  0.74093168     0.85300
C1595       C  0.35346558  0.47584386  0.68099828     1.06900
H1596       H  0.47897675  0.48988293  0.71564994     0.38700
O1597       O  0.47424433  0.48111168  0.68502593    -1.09600
O1598       O  0.49647432  0.44722094  0.94904232    -0.66200
Ni1599     Ni  0.46855503  0.43147720  0.67408314     1.26300
O1600       O  0.41625595  0.46501878  0.73462772    -0.66500
O1601       O  0.51676780  0.42681339  0.69162217    -0.78700
C1602       C  0.43166334  0.36096502  0.65723082     0.84700
O1603       O  0.46485546  0.38907333  0.00011747    -0.65900
Ni1604     Ni  0.51270208  0.52051676  0.98280851     1.27400
Ni1605     Ni  0.42696861  0.48715986  0.67447781     1.26100
H1606       H  0.41157566  0.45382285  0.96093098     0.39200
O1607       O  0.40955651  0.36577433  0.87980056    -0.80700
O1608       O  0.44619395  0.52687398  0.80844974    -0.65400
O1609       O  0.42330799  0.42690289  0.83456785    -1.12000
C1610       C  0.54467567  0.42373425  0.81464282     1.06200
O1611       O  0.50097378  0.52945130  0.77602049    -0.78600
O1612       O  0.47261849  0.46101754  0.77965059    -0.66200
Ni1613     Ni  0.39593160  0.41224231  0.88748986     1.34900
C1614       C  0.46164782  0.43362157  0.75882753     0.84900
O1615       O  0.38372840  0.48287538  0.82277755    -0.79200
O1616       O  0.37682483  0.45632942  0.89327823    -0.89400
C1617       C  0.47478191  0.54396888  0.79201658     0.84500
O1618       O  0.44087864  0.42921892  0.90679548    -0.67600
O1619       O  0.53820032  0.44049857  0.77718250    -0.86900
C1620       C  0.45326905  0.46120479  0.90457519     0.85300
C1621       C  0.36395963  0.47199258  0.85858011     1.06900
H1622       H  0.49550554  0.48520603  0.84593840     0.38700
O1623       O  0.48327351  0.47023800  0.82316096    -1.09600
O1624       O  0.47194116  0.40646654  0.77529946    -0.66200
Ni1625     Ni  0.47351086  0.42070794  0.84075104     1.26300
O1626       O  0.43739561  0.48456526  0.88557579    -0.66500
O1627       O  0.52184307  0.41634696  0.84729377    -0.78700
C1628       C  0.43808003  0.35398666  0.86758694     0.84700
O1629       O  0.46554087  0.37319210  0.85638547    -0.65900
Ni1630     Ni  0.51768412  0.48391629  0.77468985     1.27400
Ni1631     Ni  0.43333705  0.47737267  0.82053208     1.26100
H1632       H  0.41080875  0.41123311  0.81335299     0.39200
C1633       C  0.41104697  0.18696417  0.85545322    -0.11200
C1634       C  0.44172504  0.20692185  0.83968124     0.15300
C1635       C  0.47012219  0.18943802  0.82330351     0.02200
C1636       C  0.46702316  0.15289537  0.82417447    -0.15600
C1637       C  0.43554042  0.13342765  0.83788302    -0.10400
C1638       C  0.40664466  0.15109097  0.85094456     0.09000
C1639       C  0.44256456  0.24547295  0.84240526     0.10000
S1640       S  0.51048786  0.21168464  0.79981518    -0.24700
H1641       H  0.48897419  0.13947438  0.81307140     0.20200
S1642       S  0.36246932  0.13084917  0.85787426    -0.30400
H1643       H  0.38937443  0.19963077  0.86935990     0.10600
C1644       C  0.41466126  0.26300703  0.82563125     0.03800
C1645       C  0.41314431  0.29793069  0.83659801    -0.12700
C1646       C  0.43948787  0.31640372  0.86225178    -0.08400
C1647       C  0.46873446  0.29984519  0.87597465     0.07200
C1648       C  0.46961594  0.26447850  0.86660214    -0.13500
S1649       S  0.38079228  0.24151583  0.78968648    -0.30400
H1650       H  0.39162165  0.31120839  0.82423432     0.11500
S1651       S  0.50442452  0.32295576  0.90723778    -0.27500
H1652       H  0.49113434  0.25140646  0.87920696     0.08700
H1653       H  0.36726853  0.10001448  0.83494418     0.27100
H1654       H  0.36610568  0.27150249  0.77478750     0.21900
H1655       H  0.52821895  0.29834472  0.89996931     0.27200
H1656       H  0.49533922  0.23982464  0.78014122     0.16100
C1657       C  0.36725694  0.19985033  0.68741706    -0.11200
C1658       C  0.40134166  0.21098807  0.67023235     0.15300
C1659       C  0.43171137  0.19195572  0.98958773     0.02200
C1660       C  0.41974273  0.15636768  0.99318002    -0.15600
C1661       C  0.37608339  0.13952869  0.67530224    -0.10400
C1662       C  0.35449466  0.16452692  0.69013982     0.09000
C1663       C  0.41202130  0.24906161  0.66411374     0.10000
S1664       S  0.47653116  0.20266041  0.97015984    -0.24700
H1665       H  0.43736930  0.13733199  0.98432291     0.20200
S1666       S  0.31041562  0.15294708  0.71206265    -0.30400
H1667       H  0.35012584  0.21898426  0.69776973     0.10600
C1668       C  0.39914558  0.27618716  0.96674733     0.03800
C1669       C  0.40675980  0.31238757  0.96599256    -0.12700
C1670       C  0.43028581  0.32221582  0.65510766    -0.08400
C1671       C  0.44858524  0.30222125  0.68670450     0.07200
C1672       C  0.43916043  0.26590292  0.69104121    -0.13500
S1673       S  0.36403946  0.25668231  0.93070048    -0.30400
H1674       H  0.38975702  0.32738188  0.94621114     0.11500
S1675       S  0.48176148  0.32296237  0.72444330    -0.27500
H1676       H  0.45250822  0.25058568  0.71597049     0.08700
H1677       H  0.30493756  0.12038721  0.69026293     0.27100
H1678       H  0.35394745  0.28758848  0.91086261     0.21900
H1679       H  0.48310519  0.29466905  0.75610106     0.27200
H1680       H  0.47475185  0.23747288  0.95761664     0.16100
C1681       C  0.20234781  0.52438872  0.86368307    -0.11200
C1682       C  0.21499929  0.49166596  0.86129077     0.15300
C1683       C  0.19006692  0.46180188  0.85906018     0.02200
C1684       C  0.15433993  0.46566573  0.85695488    -0.15600
C1685       C  0.14206911  0.49843446  0.85665403    -0.10400
C1686       C  0.16664192  0.52830103  0.86032189     0.09000
C1687       C  0.25382695  0.48942931  0.86237380     0.10000
S1688       S  0.20138560  0.41773852  0.85826390    -0.24700
H1689       H  0.13569564  0.44274444  0.85452045     0.20200
S1690       S  0.15528969  0.57232116  0.86204797    -0.30400
H1691       H  0.22059407  0.54737102  0.86814177     0.10600
C1692       C  0.27791225  0.50802881  0.82958378     0.03800
C1693       C  0.31347412  0.50231583  0.82955162    -0.12700
C1694       C  0.32607346  0.47819698  0.86120126    -0.08400
C1695       C  0.30179345  0.46012613  0.89441962     0.07200
C1696       C  0.26690034  0.46712283  0.89589978    -0.13500
S1697       S  0.26385370  0.53885870  0.78693962    -0.30400
H1698       H  0.33153202  0.51653211  0.80426420     0.11500
S1699       S  0.31218727  0.42531193  0.93335219    -0.27500
H1700       H  0.24923245  0.45339186  0.92212963     0.08700
H1701       H  0.12056852  0.56647615  0.84840474     0.27100
H1702       H  0.29571912  0.54601572  0.76145753     0.21900
H1703       H  0.32746372  0.40750698  0.89627960     0.27200
H1704       H  0.23312667  0.42522253  0.83277821     0.16100
C1705       C  0.27838794  0.52460447  0.64020838    -0.11200
C1706       C  0.25077132  0.50746185  0.66746160     0.15300
C1707       C  0.25720320  0.48040768  0.69956207     0.02200
C1708       C  0.29084879  0.47099655  0.70317361    -0.15600
C1709       C  0.31878676  0.48826648  0.67618598    -0.10400
C1710       C  0.31225273  0.51583610  0.64444956     0.09000
C1711       C  0.21527184  0.51686144  0.65974805     0.10000
S1712       S  0.22396294  0.45729756  0.73793496    -0.24700
H1713       H  0.29517044  0.45016194  0.72796480     0.20200
S1714       S  0.34498267  0.54123951  0.60773301    -0.30400
H1715       H  0.27337245  0.54466291  0.61455000     0.10600
C1716       C  0.20661031  0.55113206  0.66518054     0.03800
C1717       C  0.17189257  0.55760598  0.66066537    -0.12700
C1718       C  0.14553531  0.53038734  0.65431800    -0.08400
C1719       C  0.15433981  0.49596710  0.64936166     0.07200
C1720       C  0.18929382  0.49030785  0.64870350    -0.13500
S1721       S  0.23859716  0.58608258  0.68237361    -0.30400
H1722       H  0.16461676  0.58355660  0.66585691     0.11500
S1723       S  0.12965525  0.46333667  0.97693223    -0.27500
H1724       H  0.20172842  0.47285398  0.97247320     0.08700
H1725       H  0.35858770  0.51242650  0.58798179     0.27100
H1726       H  0.21775700  0.61327883  0.67515793     0.21900
H1727       H  0.09899564  0.47466403  0.99513969     0.27200
H1728       H  0.20491673  0.48581028  0.74547237     0.16100
C1729       C  0.12927467  0.96157724  0.83473380    -0.11200
C1730       C  0.14644178  0.99458140  0.84511510     0.15300
C1731       C  0.12579729  0.02061146  0.85999114     0.02200
C1732       C  0.08953357  0.01364768  0.86234177    -0.15600
C1733       C  0.07221767  0.98024239  0.85467919    -0.10400
C1734       C  0.09286629  0.95386150  0.84067731     0.09000
C1735       C  0.18547453  0.00188333  0.84082145     0.10000
S1736       S  0.14388226  0.06313030  0.87881564    -0.24700
H1737       H  0.07478026  0.03481318  0.87225435     0.20200
S1738       S  0.07458703  0.91019673  0.82883194    -0.30400
H1739       H  0.14429171  0.94157439  0.82162602     0.10600
C1740       C  0.20800029  0.98146518  0.86510717     0.03800
C1741       C  0.24348647  0.99334693  0.86845620    -0.12700
C1742       C  0.25768625  0.02471340  0.84675258    -0.08400
C1743       C  0.23587723  0.04407331  0.81958359     0.07200
C1744       C  0.20040243  0.03202268  0.81588591    -0.13500
S1745       S  0.19241456  0.94011827  0.89201314    -0.30400
H1746       H  0.26060680  0.97785500  0.88755393     0.11500
S1747       S  0.25125025  0.08518953  0.79099650    -0.27500
H1748       H  0.18388152  0.04731151  0.79532936     0.08700
H1749       H  0.05064972  0.92072297  0.79581582     0.27100
H1750       H  0.22525477  0.92780957  0.89559697     0.21900
H1751       H  0.28093805  0.09264076  0.81880488     0.27200
H1752       H  0.17182002  0.05096875  0.90322148     0.16100
C1753       C  0.97014996  0.76118704  0.86178994    -0.11200
C1754       C  0.00448000  0.76094529  0.84368129     0.15300
C1755       C  0.02248442  0.79307433  0.82750025     0.02200
C1756       C  0.00727358  0.82414585  0.83459777    -0.15600
C1757       C  0.97288102  0.82404376  0.85282158    -0.10400
C1758       C  0.95345245  0.79151325  0.86274054     0.09000
C1759       C  0.01783637  0.72598036  0.83858163     0.10000
S1760       S  0.06357977  0.79653205  0.79486977    -0.24700
H1761       H  0.02201072  0.84851309  0.82380625     0.20200
S1762       S  0.90654104  0.78717803  0.87102916    -0.30400
H1763       H  0.95547364  0.73695627  0.87334538     0.10600
C1764       C  0.05023329  0.71700545  0.85593944     0.03800
C1765       C  0.05803751  0.68224722  0.85364412    -0.12700
C1766       C  0.03347602  0.65575008  0.83774305    -0.08400
C1767       C  0.00074889  0.66448153  0.82346316     0.07200
C1768       C  0.99447564  0.69919167  0.82035153    -0.13500
S1769       S  0.08216773  0.74742133  0.88359238    -0.30400
H1770       H  0.08279737  0.67549129  0.86633037     0.11500
S1771       S  0.96402306  0.63248565  0.81580620    -0.27500
H1772       H  0.96951355  0.70497443  0.80710172     0.08700
H1773       H  0.90083778  0.75137704  0.86182528     0.27100
H1774       H  0.05810010  0.76852447  0.90280440     0.21900
H1775       H  0.97344462  0.60872717  0.85036339     0.27200
H1776       H  0.05889910  0.76312919  0.77541571     0.16100
C1777       C  0.21283155  0.97430078  0.70092854    -0.11200
C1778       C  0.19618402  0.94191359  0.68834960     0.15300
C1779       C  0.22125877  0.91365404  0.00043977     0.02200
C1780       C  0.25770135  0.92187792  0.00262388    -0.15600
C1781       C  0.26911842  0.95384694  0.68842079    -0.10400
C1782       C  0.24870078  0.98127884  0.69742982     0.09000
C1783       C  0.15864615  0.94087062  0.67982092     0.10000
S1784       S  0.20666350  0.87327252  0.97191991    -0.24700
H1785       H  0.27489795  0.90376582  0.98909620     0.20200
S1786       S  0.26539124  0.02655664  0.69811495    -0.30400
H1787       H  0.19745429  0.99552208  0.70858305     0.10600
C1788       C  0.13311765  0.91945795  0.70640854     0.03800
C1789       C  0.09796503  0.92426213  0.70078349    -0.12700
C1790       C  0.08835905  0.95055590  0.67011995    -0.08400
C1791       C  0.11696531  0.97724149  0.98854712     0.07200
C1792       C  0.15142844  0.96997583  0.98915894    -0.13500
S1793       S  0.14507911  0.88820485  0.74996909    -0.30400
H1794       H  0.07811788  0.90875761  0.72201259     0.11500
S1795       S  0.11153837  0.02302043  0.98886480    -0.27500
H1796       H  0.17148900  0.99105798  0.98009205     0.08700
H1797       H  0.29613710  0.02405741  0.67213887     0.27100
H1798       H  0.11170841  0.86975637  0.75538194     0.21900
H1799       H  0.08728890  0.02226412  0.95267133     0.27200
H1800       H  0.17463505  0.88258693  0.95631264     0.16100
C1801       C  0.99402310  0.77117458  0.68930019    -0.11200
C1802       C  0.96621565  0.74650869  0.67633432     0.15300
C1803       C  0.93512227  0.75933180  0.66119226     0.02200
C1804       C  0.93232729  0.79517401  0.66087453    -0.15600
C1805       C  0.96050142  0.81977253  0.67171095    -0.10400
C1806       C  0.99214372  0.80727858  0.68464791     0.09000
C1807       C  0.96991611  0.70795848  0.67844479     0.10000
S1808       S  0.90563249  0.72578396  0.96570326    -0.24700
H1809       H  0.91426463  0.79879756  0.97701179     0.20200
S1810       S  0.03034449  0.83612731  0.69788222    -0.30400
H1811       H  0.01762091  0.76236422  0.70298573     0.10600
C1812       C  0.99847349  0.69373113  0.65649330     0.03800
C1813       C  0.99898898  0.65750005  0.65494917    -0.12700
C1814       C  0.97175497  0.63447479  0.67481045    -0.08400
C1815       C  0.94354274  0.64830399  0.69763908     0.07200
C1816       C  0.94348836  0.68460525  0.70064405    -0.13500
S1817       S  0.04284877  0.71308122  0.98215010    -0.30400
H1818       H  0.02091498  0.64679341  0.63831637     0.11500
S1819       S  0.90626015  0.62095766  0.72175454    -0.27500
H1820       H  0.92194593  0.69469376  0.71922922     0.08700
H1821       H  0.03055072  0.85422639  0.65381168     0.27100
H1822       H  0.06226702  0.68563434  0.96996931     0.21900
H1823       H  0.91039553  0.59205212  0.69320189     0.27200
H1824       H  0.92706224  0.70209117  0.94632898     0.16100
C1825       C  0.51248288  0.64028070  0.78342456    -0.11200
C1826       C  0.49013020  0.65569491  0.81479633     0.15300
C1827       C  0.46036411  0.63466808  0.83379794     0.02200
C1828       C  0.45506590  0.59919410  0.82279911    -0.15600
C1829       C  0.47900188  0.58306105  0.79438636    -0.10400
C1830       C  0.50823671  0.60461690  0.77424586     0.09000
C1831       C  0.49892522  0.69346910  0.82599582     0.10000
S1832       S  0.42816004  0.65013116  0.87355987    -0.24700
H1833       H  0.43262678  0.58367996  0.83886732     0.20200
S1834       S  0.54301411  0.58924811  0.73905201    -0.30400
H1835       H  0.53440325  0.65621841  0.76669866     0.10600
C1836       C  0.53247661  0.70693981  0.84158810     0.03800
C1837       C  0.53998187  0.74284630  0.84920293    -0.12700
C1838       C  0.51465050  0.76569435  0.84329223    -0.08400
C1839       C  0.48074025  0.75205061  0.83013618     0.07200
C1840       C  0.47376146  0.71667874  0.81979982    -0.13500
S1841       S  0.56576798  0.67868849  0.85371094    -0.30400
H1842       H  0.56587109  0.75344138  0.85918724     0.11500
S1843       S  0.44470955  0.77786379  0.82750304    -0.27500
H1844       H  0.44817063  0.70707570  0.80736027     0.08700
H1845       H  0.52111231  0.56850899  0.70945567     0.27100
H1846       H  0.58961036  0.70381087  0.87458248     0.21900
H1847       H  0.45901597  0.80483793  0.85640704     0.27200
H1848       H  0.44927216  0.67797519  0.89252993     0.16100
C1849       C  0.67499021  0.98261762  0.87792838    -0.11200
C1850       C  0.69308280  0.95522107  0.86150749     0.15300
C1851       C  0.67502345  0.92888698  0.83413103     0.02200
C1852       C  0.64026261  0.93047350  0.82420742    -0.15600
C1853       C  0.62228026  0.95743164  0.84098550    -0.10400
C1854       C  0.63992815  0.98407460  0.86756949     0.09000
C1855       C  0.73000873  0.95315760  0.87401534     0.10000
S1856       S  0.69373147  0.89118719  0.81279658    -0.24700
H1857       H  0.62637881  0.90902730  0.80598771     0.20200
S1858       S  0.61838387  0.01946647  0.89084200    -0.30400
H1859       H  0.68765240  0.00253520  0.90015529     0.10600
C1860       C  0.75653074  0.98057191  0.86424714     0.03800
C1861       C  0.79118212  0.97348359  0.86470062    -0.12700
C1862       C  0.80016006  0.94008728  0.87597085    -0.08400
C1863       C  0.77379244  0.91407099  0.89213134     0.07200
C1864       C  0.73919931  0.92150504  0.89260947    -0.13500
S1865       S  0.74740355  0.02470438  0.85194703    -0.30400
H1866       H  0.81147091  0.99415693  0.85567225     0.11500
S1867       S  0.78276103  0.87042251  0.90780006    -0.27500
H1868       H  0.71872458  0.90163116  0.90433342     0.08700
H1869       H  0.59192612  0.01748594  0.85685041     0.27100
H1870       H  0.77990010  0.03652471  0.83059945     0.21900
H1871       H  0.74879037  0.85753388  0.92315360     0.27200
H1872       H  0.72610831  0.90939004  0.79936968     0.16100
C1873       C  0.47768713  0.72251865  0.70374543    -0.11200
C1874       C  0.44636269  0.70394000  0.69055234     0.15300
C1875       C  0.42083201  0.72802144  0.01315422     0.02200
C1876       C  0.42513119  0.76443566  0.01279770    -0.15600
C1877       C  0.45498493  0.77719345  0.68700775    -0.10400
C1878       C  0.48339888  0.75829351  0.69738413     0.09000
C1879       C  0.44628577  0.66584795  0.68501244     0.10000
S1880       S  0.37987119  0.70661298  0.99374148    -0.24700
H1881       H  0.40349981  0.77879181  0.00387418     0.20200
S1882       S  0.52851153  0.77629599  0.69644862    -0.30400
H1883       H  0.49932813  0.70857889  0.71414097     0.10600
C1884       C  0.47403730  0.65960960  0.98925597     0.03800
C1885       C  0.47485724  0.62413098  0.98514060    -0.12700
C1886       C  0.44885921  0.59325223  0.67899210    -0.08400
C1887       C  0.42207307  0.60639997  0.70673964     0.07200
C1888       C  0.42151882  0.64261544  0.70986303    -0.13500
S1889       S  0.50510500  0.68827374  0.95395946    -0.30400
H1890       H  0.49379998  0.61515001  0.96050069     0.11500
S1891       S  0.38849714  0.57810955  0.73849465    -0.27500
H1892       H  0.40206851  0.65299927  0.73226926     0.08700
H1893       H  0.52465071  0.80703148  0.67156742     0.27100
H1894       H  0.53031235  0.66475612  0.94988512     0.21900
H1895       H  0.36871455  0.60416412  0.75496685     0.27200
H1896       H  0.39432513  0.68004191  0.96902005     0.16100
C1897       C  0.77939250  0.89088212  0.03424609    -0.11200
C1898       C  0.74900874  0.92741928  0.69854459     0.15300
C1899       C  0.76219885  0.95979859  0.71864407     0.02200
C1900       C  0.79853554  0.96864166  0.72257229    -0.15600
C1901       C  0.82209385  0.94438575  0.71267827    -0.10400
C1902       C  0.81467289  0.89763284  0.04694617     0.09000
C1903       C  0.71090579  0.91536358  0.69019218     0.10000
S1904       S  0.73497662  0.98906635  0.74631111    -0.24700
H1905       H  0.80822778  0.99350652  0.73725934     0.20200
S1906       S  0.84443965  0.86609186  0.03302594    -0.30400
H1907       H  0.77069307  0.86663629  0.01727093     0.10600
C1908       C  0.69743745  0.92710017  0.00295410     0.03800
C1909       C  0.66205441  0.91664221  0.99376335    -0.12700
C1910       C  0.63992910  0.88858978  0.67710090    -0.08400
C1911       C  0.66348820  0.86719975  0.69629656     0.07200
C1912       C  0.69827133  0.88056816  0.70242644    -0.13500
S1913       S  0.71603256  0.96920629  0.98103495    -0.30400
H1914       H  0.64697371  0.93401481  0.97431958     0.11500
S1915       S  0.65051088  0.82266400  0.71434217    -0.27500
H1916       H  0.71532421  0.86361705  0.71887679     0.08700
H1917       H  0.82183261  0.84485202  0.00427912     0.27100
H1918       H  0.68457938  0.98444893  0.98387212     0.21900
H1919       H  0.62163675  0.81745975  0.68448093     0.27200
H1920       H  0.70576822  0.96462374  0.75418567     0.16100
C1921       C  0.88755573  0.12889895  0.87377494    -0.11200
C1922       C  0.91675192  0.15094857  0.85666673     0.15300
C1923       C  0.94504366  0.13574848  0.83569523     0.02200
C1924       C  0.94167030  0.10005330  0.82764692    -0.15600
C1925       C  0.91178252  0.07801273  0.84236428    -0.10400
C1926       C  0.88484786  0.09281478  0.86714237     0.09000
C1927       C  0.91559852  0.18930546  0.85771584     0.10000
S1928       S  0.98722585  0.15879221  0.82014967    -0.24700
H1929       H  0.96353103  0.08925612  0.81078496     0.20200
S1930       S  0.84599102  0.06752294  0.88966167    -0.30400
H1931       H  0.86623029  0.14008327  0.89141012     0.10600
C1932       C  0.89121954  0.20535516  0.83042811     0.03800
C1933       C  0.89360968  0.24170576  0.82712497    -0.12700
C1934       C  0.91933771  0.26278661  0.85107621    -0.08400
C1935       C  0.94203356  0.24669391  0.88124321     0.07200
C1936       C  0.93982678  0.21030916  0.88434882    -0.13500
S1937       S  0.85735792  0.17986091  0.79870410    -0.30400
H1938       H  0.87487249  0.25391855  0.80642137     0.11500
S1939       S  0.97486792  0.27090914  0.91584572    -0.27500
H1940       H  0.95849441  0.19841007  0.90566259     0.08700
H1941       H  0.84126477  0.04967170  0.84654721     0.27100
H1942       H  0.84251154  0.20776929  0.77736868     0.21900
H1943       H  0.97962091  0.30009659  0.88488072     0.27200
H1944       H  0.97816487  0.19266450  0.81685982     0.16100
C1945       C  0.63605059  0.41846889  0.85704116    -0.11200
C1946       C  0.64562882  0.38967481  0.83196435     0.15300
C1947       C  0.62135649  0.37190340  0.80108466     0.02200
C1948       C  0.58856336  0.38368174  0.79570176    -0.15600
C1949       C  0.57946348  0.41268675  0.82036724    -0.10400
C1950       C  0.60348207  0.43034728  0.85117173     0.09000
C1951       C  0.68159115  0.38019315  0.83732814     0.10000
S1952       S  0.62988150  0.33410658  0.76754457    -0.24700
H1953       H  0.56995209  0.37010910  0.77213269     0.20200
S1954       S  0.59423447  0.46845472  0.88343638    -0.30400
H1955       H  0.65443957  0.43220713  0.88074665     0.10600
C1956       C  0.71047022  0.40250943  0.81962913     0.03800
C1957       C  0.74400746  0.39248612  0.82391646    -0.12700
C1958       C  0.74962051  0.36044415  0.84498624    -0.08400
C1959       C  0.72086790  0.33851716  0.86397653     0.07200
C1960       C  0.68716159  0.34869788  0.86023956    -0.13500
S1961       S  0.70489384  0.44378503  0.79127154    -0.30400
H1962       H  0.76621595  0.40988615  0.81131402     0.11500
S1963       S  0.72544806  0.29726337  0.89258832    -0.27500
H1964       H  0.66503847  0.33167226  0.87437468     0.08700
H1965       H  0.57309763  0.48156185  0.84863569     0.27100
H1966       H  0.73885517  0.45024229  0.77150629     0.21900
H1967       H  0.75751676  0.29198429  0.87072794     0.27200
H1968       H  0.66627636  0.33746937  0.77045593     0.16100
C1969       C  0.85408455  0.18431902  0.99169392    -0.11200
C1970       C  0.88872071  0.18447967  0.67725122     0.15300
C1971       C  0.90683053  0.21281968  0.70094075     0.02200
C1972       C  0.89377955  0.24490226  0.70119573    -0.15600
C1973       C  0.86520702  0.24535146  0.01322397    -0.10400
C1974       C  0.84276231  0.21765298  0.99499299     0.09000
C1975       C  0.90215175  0.14958931  0.67583235     0.10000
S1976       S  0.94634651  0.21026842  0.73299681    -0.24700
H1977       H  0.90865812  0.26637467  0.71810981     0.20200
S1978       S  0.79942267  0.22322521  0.97588378    -0.30400
H1979       H  0.83674363  0.16338392  0.97718995     0.10600
C1980       C  0.88132120  0.11843165  0.68940694     0.03800
C1981       C  0.89621343  0.08688498  0.68990525    -0.12700
C1982       C  0.92629607  0.07646836  0.01230042    -0.08400
C1983       C  0.94364490  0.10466799  0.98504440     0.07200
C1984       C  0.92926655  0.13622556  0.98201171    -0.13500
S1985       S  0.83638901  0.11841117  0.70898223    -0.30400
H1986       H  0.88025819  0.06309540  0.70034245     0.11500
S1987       S  0.98559654  0.10335888  0.95608126    -0.27500
H1988       H  0.94345728  0.15750739  0.96208484     0.08700
H1989       H  0.79500503  0.25238763  0.00380885     0.27100
H1990       H  0.82884834  0.08226970  0.71609753     0.21900
H1991       H  0.97160179  0.08188088  0.91954177     0.27200
H1992       H  0.93605138  0.17646106  0.75069776     0.16100
C1993       C  0.70297863  0.39044726  0.68715895    -0.11200
C1994       C  0.69433749  0.42851072  0.01291917     0.15300
C1995       C  0.72039257  0.45480052  0.99574934     0.02200
C1996       C  0.75590064  0.44978394  0.99831959    -0.15600
C1997       C  0.76641271  0.41834008  0.01526562    -0.10400
C1998       C  0.73884482  0.38738421  0.68665995     0.09000
C1999       C  0.65622653  0.43384896  0.01613567     0.10000
S2000       S  0.71007904  0.49454734  0.96766856    -0.24700
H2001       H  0.77557124  0.47023787  0.98584048     0.20200
S2002       S  0.75157369  0.34510397  0.70095949    -0.30400
H2003       H  0.68535105  0.36903143  0.70138234     0.10600
C2004       C  0.62968053  0.41071001  0.99591941     0.03800
C2005       C  0.59464189  0.41808306  0.99833093    -0.12700
C2006       C  0.58526647  0.44859582  0.01920615    -0.08400
C2007       C  0.60738572  0.46119841  0.70230249     0.07200
C2008       C  0.64200100  0.45398529  0.69820941    -0.13500
S2009       S  0.64030780  0.37306016  0.96367680    -0.30400
H2010       H  0.57467836  0.40107368  0.98120646     0.11500
S2011       S  0.60106914  0.50250797  0.72863854    -0.27500
H2012       H  0.66224804  0.47277998  0.71143122     0.08700
H2013       H  0.78322382  0.34895855  0.67483723     0.27100
H2014       H  0.60607274  0.36038143  0.95192318     0.21900
H2015       H  0.56516113  0.49718716  0.73673010     0.27200
H2016       H  0.67885779  0.47982861  0.94764957     0.16100
loop_ 
_geom_bond_atom_site_label_1 
_geom_bond_atom_site_label_2 
_geom_bond_distance 
_geom_bond_site_symmetry_2 
_ccdc_geom_bond_type 
C1            C3   1.570       .  S
C1            C5   1.552       .  S
C1            C4   1.562       .  S
C1           C25   1.716       .  S
C2            C6   1.577       .  S
C2            C8   1.569       .  S
C2            C7   1.569       .  S
C2           C24   1.770       .  S
C3           C11   1.388       .  A
C3          C678   1.431       .  A
C4           C15   1.381       .  A
C4          C679   1.447       .  A
C5           C19   1.375       .  A
C5          C680   1.428       .  A
C6            C9   1.372       .  A
C6         C1347   1.444   1_554  A
C7           C13   1.387       .  A
C7         C1348   1.444   1_554  A
C8           C16   1.381       .  A
C8         C1349   1.433   1_554  A
C9           N10   1.347       .  A
C9           H22   1.065       .  S
N10        C1355   1.351   1_554  A
N10         N154   1.426       .  S
C11         N682   1.365       .  A
C11          H12   1.079       .  S
C13        N1358   1.360       .  A
C13          H23   1.077       .  S
N14          C15   1.351       .  A
N14         C685   1.356       .  A
N14         C653   1.442       .  S
C15          H21   1.080       .  S
C16        N1361   1.362       .  A
C16          H18   1.078       .  S
N17          C19   1.358       .  A
N17         C688   1.357       .  A
N17         C629   1.433       .  S
C19          H20   1.082       .  S
C24          C26   1.570       .  S
C24          C28   1.563       .  S
C24          C27   1.554       .  S
C25          C29   1.554       .  S
C25          C31   1.575       .  S
C25          C30   1.558       .  S
C26          C34   1.370       .  A
C26          C29   1.449       .  A
C27          C38   1.366       .  A
C27          C30   1.431       .  A
C28          C42   1.376       .  A
C28          C31   1.450       .  A
C29          C32   1.391       .  A
C30          C36   1.382       .  A
C31          C39   1.385       .  A
C32          N33   1.343       .  A
C32          H45   1.080       .  S
N33          C34   1.341       .  A
N33         N177   1.413       .  S
C34          H35   1.065       .  S
C36          N37   1.358       .  A
C36          H46   1.080       .  S
N37          C38   1.355       .  A
N37         C614   1.434       .  S
C38          H44   1.075       .  S
C39          N40   1.357       .  A
C39          H41   1.080       .  S
N40          C42   1.357       .  A
N40         C590   1.441       .  S
C42          H43   1.081       .  S
C47          C49   1.567       .  S
C47          C51   1.555       .  S
C47          C50   1.562       .  S
C47          C70   1.737       .  S
C48          C52   1.562       .  S
C48         C726   1.569       .  S
C48         C725   1.539       .  S
C48          C71   1.724       .  S
C49          C57   1.377       .  A
C49        C1396   1.444   1_554  A
C50          C61   1.377       .  A
C50          C53   1.440   1_554  A
C51          C65   1.369       .  A
C51          C54   1.439   1_554  A
C52          C55   1.378       .  A
C52         C721   1.443       .  A
C53        C1392   1.572       .  S
C53        C1403   1.391       .  A
C54        C1392   1.554       .  S
C54        C1406   1.376       .  A
C55         N728   1.359       .  A
C55          H68   1.078       .  S
N56          C57   1.362       .  A
N56        C1399   1.358   1_554  A
N56        N1544   1.417       .  S
C57          H58   1.079       .  S
C59         C725   1.364       .  A
C59         N732   1.354       .  A
C59          H69   1.082       .  S
N60          C61   1.356       .  A
N60        C1403   1.364   1_554  A
N60         C566   1.449       .  S
C61          H67   1.080       .  S
C62         C726   1.385       .  A
C62         N735   1.353       .  A
C62          H64   1.079       .  S
N63          C65   1.350       .  A
N63        C1406   1.351   1_554  A
N63         C533   1.426       .  S
C65          H66   1.076       .  S
C70          C72   1.557       .  S
C70          C74   1.569       .  S
C70          C73   1.565       .  S
C71          C75   1.549       .  S
C71          C77   1.569       .  S
C71          C76   1.563       .  S
C72          C80   1.373       .  A
C72          C75   1.429       .  A
C73          C84   1.371       .  A
C73          C76   1.435       .  A
C74          C88   1.385       .  A
C74          C77   1.445       .  A
C75          C78   1.371       .  A
C76          C82   1.385       .  A
C77          C85   1.382       .  A
C78          N79   1.360       .  A
C78          H91   1.080       .  S
N79          C80   1.363       .  A
N79         N223   1.415       .  S
C80          H81   1.079       .  S
C82          N83   1.357       .  A
C82          H92   1.077       .  S
N83          C84   1.354       .  A
N83         C494   1.442       .  S
C84          H90   1.064       .  S
C85          N86   1.358       .  A
C85          H87   1.079       .  S
N86          C88   1.359       .  A
N86         C509   1.445       .  S
C88          H89   1.080       .  S
O93         Ni99   1.941   1_465  S
O93         C786   1.282       .  A
O94        Ni117   1.936       .  S
O94         C103   1.278       .  A
O95        Ni117   1.959       .  S
O95        Ni111   2.012       .  S
O95       Ni1443   1.878   1_664  S
O95         H118   0.946       .  S
C96         O113   1.287   1_554  A
C96         O105   1.273       .  A
C96         C461   1.482       .  S
O97        Ni116   1.928       .  S
O97         C103   1.283       .  A
O98        Ni116   1.891       .  S
O98         C100   1.262       .  A
Ni99        O102   1.915       .  S
Ni99        O104   1.886   1_545  S
Ni99        O767   1.881   1_545  S
C100        O110   1.242       .  A
C100        C132   1.455       .  S
O101       Ni117   1.931   1_545  S
O101       C1451   1.278       .  A
O102        C107   1.272       .  A
C103        C557   1.501       .  S
O104        C106   1.253       .  A
O105       Ni116   1.907       .  S
C106        O112   1.249       .  A
C106        C126   1.509       .  S
C107        O773   1.273       .  A
C107        C638   1.485       .  S
H108        O781   0.955       .  S
O109       Ni117   1.935       .  S
O109       Ni111   1.955       .  S
O109       Ni116   1.881       .  S
O109       H1452   0.941       .  S
O110       Ni111   1.870       .  S
Ni111       O115   1.925   1_654  S
Ni111       O113   1.953   1_554  S
O112       Ni789   1.885       .  S
C114        O115   1.276       .  A
C114       O1437   1.274       .  A
C114        C446   1.500       .  S
Ni117      O1456   1.863   1_554  S
O119       Ni125   1.897   1_565  S
O119        C140   1.273       .  A
O120       Ni143   1.944       .  S
O120        C129   1.287       .  A
O121       Ni125   1.884   1_665  S
O121       Ni143   1.961       .  S
O121       Ni137   1.932       .  S
O121        H144   0.956       .  S
C122        O139   1.275       .  A
C122        O131   1.278       .  A
C122        C413   1.498       .  S
O123       Ni142   1.939       .  S
O123        C129   1.283       .  A
O124       Ni142   1.856       .  S
O124        C126   1.254       .  A
Ni125       O128   1.933   1_455  S
Ni125       O130   1.856   1_545  S
C126        O136   1.253       .  A
O127       Ni143   1.914   1_545  S
O127        C133   1.265       .  A
O128        C133   1.274       .  A
C129        C518   1.503       .  S
O130        C132   1.261   1_455  A
O131       Ni142   1.929       .  S
C132        O138   1.291       .  A
C133        C581   1.498       .  S
H134        O135   0.944       .  S
O135       Ni143   1.881       .  S
O135       Ni137   1.978       .  S
O135       Ni142   1.882       .  S
O136       Ni137   1.869       .  S
Ni137       O141   1.931   1_655  S
Ni137       O139   1.921       .  S
O138       Ni143   1.924       .  S
C140        O141   1.279       .  A
C140        C389   1.457       .  S
C145        C819   1.584       .  S
C145        C821   1.549   1_455  S
C145        C820   1.552       .  S
C145        C169   1.707       .  S
C146        C150   1.576       .  S
C146        C152   1.568   1_455  S
C146        C151   1.560       .  S
C146        C168   1.787       .  S
C147       C1489   1.577       .  S
C147        C155   1.404       .  A
C147        C150   1.450   1_556  A
C148       C1489   1.552       .  S
C148        C159   1.374       .  A
C148        C151   1.439   1_556  A
C149       C1489   1.557   1_655  S
C149        C163   1.377       .  A
C149        C152   1.444   1_556  A
C150        C153   1.375   1_455  A
C151        C157   1.375       .  A
C152        C160   1.375       .  A
C153        N154   1.347       .  A
C153        H166   1.056       .  S
N154        C155   1.349   1_654  A
C155       H1500   1.079   1_455  S
H156        C827   1.077   1_655  S
C157        N158   1.340   1_554  A
C157        H167   1.061       .  S
N158        C159   1.341       .  A
N158        C374   1.429       .  S
C159       H1509   1.072       .  S
C160        N161   1.354       .  A
C160        H162   1.072       .  S
N161        C163   1.355   1_554  A
N161        C470   1.437       .  S
C163       H1508   1.080       .  S
H164        C835   1.080       .  S
H165        C831   1.073       .  S
C168        C170   1.578   1_455  S
C168        C172   1.563       .  S
C168        C171   1.584       .  S
C169        C173   1.537   1_455  S
C169        C175   1.559       .  S
C169        C174   1.588       .  S
C170        C178   1.369       .  A
C170        C173   1.437       .  A
C171        C182   1.407       .  A
C171        C174   1.449       .  A
C172        C186   1.378       .  A
C172        C175   1.436       .  A
C173        C176   1.386       .  A
C174        C180   1.387       .  A
C175        C183   1.376       .  A
C176        N177   1.342       .  A
C176        H189   1.081       .  S
N177        C178   1.347       .  A
C178        H179   1.071       .  S
C180        N181   1.348       .  A
C180        H190   1.065       .  S
N181        C182   1.347       .  A
N181        C341   1.460       .  S
C182        H188   1.063       .  S
C183        N184   1.357       .  A
C183        H185   1.081       .  S
N184        C186   1.358       .  A
N184        C422   1.435       .  S
C186        H187   1.082       .  S
C191        C193   1.547       .  S
C191        C195   1.570   1_545  S
C191        C194   1.553       .  S
C191        C214   1.733       .  S
C192        C196   1.550       .  S
C192        C198   1.561   1_545  S
C192        C197   1.562       .  S
C192        C215   1.721       .  S
C193        C201   1.371   1_545  A
C193        C868   1.428       .  A
C194        C205   1.362       .  A
C194        C869   1.434       .  A
C195        C209   1.387       .  A
C195        C870   1.454       .  A
C196        C199   1.371       .  A
C196       C1537   1.433   1_554  A
C197        C203   1.384       .  A
C197       C1538   1.437   1_554  A
C198        C206   1.379       .  A
C198       C1539   1.441   1_554  A
C199       N1544   1.359   1_545  A
C199        H212   1.080   1_545  S
N200        C201   1.359       .  A
N200        C871   1.364       .  A
N200        N728   1.417       .  S
C201        H202   1.080       .  S
C203       N1548   1.354       .  A
C203        H213   1.075       .  S
N204        C205   1.349       .  A
N204        C875   1.355       .  A
N204        C989   1.434       .  S
C205        H211   1.061       .  S
C206       N1551   1.357       .  A
C206        H208   1.082       .  S
N207        C209   1.355       .  A
N207        C878   1.362       .  A
N207       C1109   1.452       .  S
C209        H210   1.080       .  S
C214        C216   1.562   1_545  S
C214        C218   1.580       .  S
C214        C217   1.546       .  S
C215        C219   1.552   1_545  S
C215        C221   1.556       .  S
C215        C220   1.533       .  S
C216        C224   1.377       .  A
C216        C219   1.443       .  A
C217        C228   1.369       .  A
C217        C220   1.424       .  A
C218        C232   1.386       .  A
C218        C221   1.459       .  A
C219        C222   1.373       .  A
C220        C226   1.352       .  A
C221        C229   1.376       .  A
C222        N223   1.355       .  A
C222        H235   1.079       .  S
N223        C224   1.358       .  A
C224        H225   1.078       .  S
C226        N227   1.347       .  A
C226        H236   1.072       .  S
N227        C228   1.357       .  A
N227        C398   1.416       .  S
C228        H234   1.080       .  S
C229        N230   1.346       .  A
C229        H231   1.080       .  S
N230        C232   1.355       .  A
N230        C293   1.437       .  S
C232        H233   1.078       .  S
O237       Ni243   1.896   1_556  S
O237        C258   1.276       .  A
O238       Ni261   1.879       .  S
O238        C247   1.266       .  A
O239       Ni243   1.918   1_556  S
O239       Ni261   1.874   1_556  S
O239       Ni255   2.036   1_556  S
O239       H1606   0.947       .  S
C240        O249   1.286       .  A
C240        O929   1.298       .  A
C240        C662   1.490       .  S
O241       Ni260   1.949       .  S
O241        C919   1.284       .  A
O242       Ni260   1.850       .  S
O242        C244   1.257       .  A
Ni243       O246   1.934       .  S
Ni243       O248   1.836       .  S
C244        O254   1.226       .  A
C244        C276   1.374       .  S
O245       Ni261   1.886   1_556  S
O245        C251   1.256   1_556  A
O246        C251   1.272       .  A
C247       O1585   1.287   1_554  A
C247        C542   1.476       .  S
O248        C250   1.254       .  A
O249       Ni260   1.944       .  S
C250        O256   1.293       .  A
C250        C270   1.453       .  S
C251        C365   1.482       .  S
H252        O253   0.953       .  S
O253       Ni261   1.872       .  S
O253       Ni255   1.949       .  S
O253      Ni1604   1.875   1_554  S
O254       Ni927   1.842       .  S
Ni255       O257   1.967       .  S
Ni255      O1598   1.848   1_554  S
Ni255      O1603   1.992       .  S
O256       Ni261   1.918       .  S
O257       C1584   1.298       .  A
C258       O1603   1.299   1_556  A
C258        C326   1.510       .  S
O259       Ni927   1.971       .  S
O259        C930   1.293       .  A
Ni260       O925   1.887       .  S
H262        O911   0.947       .  S
O263       Ni269   1.933       .  S
O263        C284   1.277       .  A
O264       Ni287   1.949       .  S
O264        C273   1.292       .  A
O265       Ni269   1.854       .  S
O265       Ni287   1.969       .  S
O265       Ni281   1.952       .  S
O265        H288   0.954       .  S
C266        O283   1.260       .  A
C266        O275   1.263       .  A
C266        C605   1.462       .  S
O267       Ni286   1.940       .  S
O267        C273   1.285       .  A
O268       Ni286   1.804       .  S
O268        C270   1.232       .  A
Ni269       O272   1.939       .  S
Ni269       O274   1.874       .  S
C270        O280   1.267       .  A
O271       Ni287   1.977       .  S
O271        C277   1.287       .  A
O272        C277   1.273       .  A
C273        C485   1.502       .  S
O274        C276   1.275       .  A
O275       Ni286   1.925       .  S
C276        O282   1.261       .  A
C277        C350   1.524       .  S
H278        O279   0.947       .  S
O279       Ni287   1.986       .  S
O279       Ni281   1.938       .  S
O279       Ni286   1.865       .  S
O280       Ni281   1.901       .  S
Ni281       O285   1.873       .  S
Ni281       O283   1.904       .  S
O282       Ni287   1.849       .  S
C284        O285   1.259       .  A
C284        C302   1.463       .  S
C289        C290   1.395       .  A
C289        C294   1.381       .  A
C289        H299   1.082       .  S
C290        C291   1.418       .  A
C290        C295   1.482       .  S
C291        C292   1.405       .  A
C291        S296   1.803       .  S
C292        C293   1.402       .  A
C292        H297   1.083       .  S
C293        C294   1.416       .  A
C294        S298   1.794       .  S
C295        C300   1.417       .  A
C295        C304   1.402       .  A
S296        H312   1.403       .  S
S298        H309   1.381       .  S
C300        C301   1.394       .  A
C300        S305   1.805       .  S
C301        C302   1.395       .  A
C301        H306   1.083       .  S
C302        C303   1.412       .  A
C303        C304   1.399       .  A
C303        S307   1.808       .  S
C304        H308   1.082       .  S
S305        H310   1.407       .  S
S307        H311   1.407       .  S
C313        C314   1.412       .  A
C313        C318   1.403       .  A
C313        H323   1.083       .  S
C314       C1659   1.420   1_554  A
C314        C319   1.504   1_554  S
C315        C316   1.401       .  A
C315        C986   1.415       .  A
C315        S320   1.804       .  S
C316        C989   1.405       .  A
C316        H321   1.083       .  S
C317        C318   1.406       .  A
C317       C1660   1.403   1_554  A
C317       N1548   1.439       .  S
C318        S322   1.805       .  S
C319        C328   1.412   1_556  A
C319       C1668   1.408       .  A
S320        H336   1.399       .  S
S322        H333   1.404       .  S
C324        C325   1.394       .  A
C324        C991   1.406       .  A
C324        S329   1.811       .  S
C325        C998   1.411       .  A
C325        H330   1.078       .  S
C326        C327   1.416   1_556  A
C326       C1669   1.413       .  A
C327        C328   1.419       .  A
C327        S331   1.805       .  S
C328        H332   1.080       .  S
S329        H334   1.406       .  S
S331        H335   1.407       .  S
C337        C338   1.412       .  A
C337        C342   1.416       .  A
C337        H347   1.082       .  S
C338        C339   1.427       .  A
C338        C343   1.529       .  S
C339        C340   1.411       .  A
C339        S344   1.806       .  S
C340        C341   1.402       .  A
C340        H345   1.083       .  S
C341        C342   1.423       .  A
C342        S346   1.806       .  S
C343        C348   1.426       .  A
C343        C352   1.405       .  A
S344        H360   1.404       .  S
S346        H357   1.397       .  S
C348        C349   1.423       .  A
C348        S353   1.806       .  S
C349        C350   1.410       .  A
C349        H354   1.082       .  S
C350        C351   1.428       .  A
C351        C352   1.407       .  A
C351        S355   1.803       .  S
C352        H356   1.083       .  S
S353        H358   1.407       .  S
S355        H359   1.407       .  S
C361        C362   1.398   1_556  A
C361        C366   1.395       .  A
C361        H371   1.084       .  S
C362        C363   1.415       .  A
C362        C367   1.480   1_554  S
C363        C364   1.393       .  A
C363        S368   1.802       .  S
C364        C365   1.402       .  A
C364        H369   1.084       .  S
C365        C366   1.425   1_554  A
C366        S370   1.805       .  S
C367        C372   1.413   1_556  A
C367        C376   1.399       .  A
S368        H384   1.407       .  S
S370        H381   1.405       .  S
C372        C373   1.402   1_554  A
C372        S377   1.808       .  S
C373        C374   1.401       .  A
C373        H378   1.082   1_556  S
C374        C375   1.416       .  A
C375        C376   1.389       .  A
C375       S1723   1.806       .  S
C376       H1724   1.083       .  S
S377        H382   1.406       .  S
S379       C1047   1.809       .  S
S379        H383   1.396       .  S
H380       C1048   1.084       .  S
C385        C386   1.403       .  A
C385        C390   1.400       .  A
C385        H395   1.083       .  S
C386        C387   1.411       .  A
C386        C391   1.467       .  S
C387        C388   1.385       .  A
C387        S392   1.808   1_565  S
C388        C389   1.396       .  A
C388        H393   1.079   1_565  S
C389        C390   1.411       .  A
C390        S394   1.800       .  S
C391        C396   1.403       .  A
C391        C400   1.408   1_565  A
S392        H408   1.408       .  S
S394        H405   1.406       .  S
C396        C397   1.388       .  A
C396        S401   1.801       .  S
C397        C398   1.403   1_565  A
C397        H402   1.083       .  S
C398        C399   1.401       .  A
C399        C400   1.393       .  A
C399        S403   1.804       .  S
C400        H404   1.084       .  S
S401        H406   1.407       .  S
S403        H407   1.404       .  S
C409        C410   1.407   1_655  A
C409        C414   1.398       .  A
C409        H419   1.083       .  S
C410        C411   1.414       .  A
C410        C415   1.500       .  S
C411        C412   1.406       .  A
C411        S416   1.805       .  S
C412        C413   1.413   1_455  A
C412        H417   1.083       .  S
C413        C414   1.417       .  A
C414        S418   1.808       .  S
C415        C420   1.426       .  A
C415        C424   1.407   1_455  A
S416        H432   1.405       .  S
S418        H429   1.406       .  S
C420        C421   1.406       .  A
C420        S425   1.806       .  S
C421        C422   1.399       .  A
C421        H426   1.083       .  S
C422        C423   1.408       .  A
C423        C424   1.392   1_455  A
C423        S427   1.799   1_455  S
C424        H428   1.084       .  S
S425        H430   1.404       .  S
S427        H431   1.402       .  S
C433        C434   1.407       .  A
C433        C438   1.386       .  A
C433        H443   1.084       .  S
C434       C1779   1.428       .  A
C434        C439   1.504       .  S
C435        C436   1.414       .  A
C435       C1106   1.428       .  A
C435        S440   1.804       .  S
C436       C1109   1.404       .  A
C436        H441   1.083       .  S
C437        C438   1.405       .  A
C437       C1780   1.403       .  A
C437       N1551   1.438       .  S
C438        S442   1.797   1_565  S
C439        C444   1.412       .  A
C439       C1792   1.408   1_554  A
S440        H456   1.406       .  S
S442        H453   1.403       .  S
C444        C445   1.414       .  A
C444        S449   1.807       .  S
C445        C446   1.416   1_554  A
C445        H450   1.079       .  S
C446       C1791   1.418       .  A
C447        C448   1.398       .  A
C447       C1118   1.410       .  A
C447        S451   1.805   1_565  S
C448       C1111   1.413       .  A
C448        H452   1.078   1_565  S
S449        H454   1.405       .  S
S451        H455   1.405       .  S
C457        C458   1.410       .  A
C457        C462   1.404       .  A
C457        H467   1.081   1_655  S
C458        C459   1.422   1_554  A
C458        C463   1.508       .  S
C459        C460   1.405       .  A
C459       S1808   1.805       .  S
C460        C461   1.403   1_556  A
C460       H1809   1.084       .  S
C461        C462   1.405       .  A
C462        S466   1.794   1_655  S
C463        C468   1.418   1_655  A
C463        C472   1.412       .  A
S464       C1131   1.806       .  S
S464        H480   1.407       .  S
H465       C1132   1.084       .  S
S466        H477   1.406   1_554  S
C468        C469   1.400       .  A
C468       S1817   1.799   1_554  S
C469        C470   1.398   1_455  A
C469        H474   1.082   1_554  S
C470        C471   1.408       .  A
C471        C472   1.406       .  A
C471        S475   1.803       .  S
C472        H476   1.083       .  S
S473       C1140   1.798   1_455  S
S473        H478   1.406       .  S
S475        H479   1.404       .  S
C481        C482   1.403       .  A
C481        C486   1.402       .  A
C481        H491   1.084       .  S
C482        C483   1.422       .  A
C482        C487   1.504       .  S
C483        C484   1.407       .  A
C483        S488   1.803       .  S
C484        C485   1.407       .  A
C484        H489   1.084       .  S
C485        C486   1.424       .  A
C486        S490   1.805       .  S
C487        C492   1.423       .  A
C487        C496   1.405       .  A
S488        H504   1.399       .  S
S490        H501   1.398       .  S
C492        C493   1.408       .  A
C492        S497   1.809       .  S
C493        C494   1.398       .  A
C493        H498   1.082       .  S
C494        C495   1.414       .  A
C495        C496   1.403       .  A
C495        S499   1.800       .  S
C496        H500   1.083       .  S
S497        H502   1.407       .  S
S499        H503   1.403       .  S
C505        C506   1.414       .  A
C505        C510   1.410       .  A
C505        H515   1.080   1_565  S
C506        C507   1.428       .  A
C506        C511   1.520       .  S
C507        C508   1.401       .  A
C507        S512   1.805       .  S
C508        C509   1.398       .  A
C508        H513   1.084       .  S
C509        C510   1.410       .  A
C510        S514   1.802   1_565  S
C511        C516   1.423       .  A
C511        C520   1.406       .  A
S512        H528   1.403       .  S
S514        H525   1.405       .  S
C516        C517   1.412       .  A
C516        S521   1.809   1_565  S
C517        C518   1.406       .  A
C517        H522   1.077       .  S
C518        C519   1.419       .  A
C519        C520   1.403       .  A
C519        S523   1.808       .  S
C520        H524   1.082       .  S
S521        H526   1.406       .  S
S523        H527   1.407       .  S
C529        C530   1.394       .  A
C529        C534   1.381       .  A
C529        H539   1.085       .  S
C530       C1875   1.413       .  A
C530        C535   1.468       .  S
C531        C532   1.410       .  A
C531       C1202   1.421       .  A
C531        S536   1.804       .  S
C532       C1205   1.404       .  A
C532        H537   1.083       .  S
C533        C534   1.416       .  A
C533       C1876   1.400       .  A
C534        S538   1.805       .  S
C535        C544   1.398       .  A
C535       C1884   1.409   1_554  A
S536        H552   1.401       .  S
S538        H549   1.387       .  S
C540        C541   1.392       .  A
C540       C1207   1.415       .  A
C540        S545   1.811       .  S
C541       C1214   1.403       .  A
C541        H546   1.081       .  S
C542        C543   1.424       .  A
C542       C1885   1.401   1_554  A
C543        C544   1.402       .  A
C543        S547   1.812       .  S
C544        H548   1.083       .  S
S545        H550   1.404       .  S
S547        H551   1.407       .  S
C553        C558   1.381       .  A
C553       C1226   1.395       .  A
C553        H563   1.084       .  S
C554        C555   1.424       .  A
C554       C1897   1.409       .  A
C554        C559   1.519       .  S
C555        C556   1.411       .  A
C555        S560   1.800       .  S
C556        C557   1.403       .  A
C556        H561   1.083       .  S
C557       C1902   1.415       .  A
C558       C1229   1.410       .  A
C558        S562   1.794       .  S
C559        C568   1.411       .  A
C559       C1908   1.421       .  A
S560        H576   1.401       .  S
S562        H573   1.399       .  S
C564        C565   1.386       .  A
C564       C1231   1.405       .  A
C564        S569   1.794       .  S
C565       C1238   1.399       .  A
C565        H570   1.080       .  S
C566        C567   1.412       .  A
C566       C1909   1.404   1_554  A
C567        C568   1.407       .  A
C567        S571   1.803       .  S
C568        H572   1.083       .  S
S569        H574   1.407       .  S
S571        H575   1.406       .  S
C577        C578   1.405       .  A
C577        C582   1.400       .  A
C577        H587   1.083       .  S
C578        C579   1.423       .  A
C578        C583   1.505       .  S
C579        C580   1.407       .  A
C579        S584   1.806   1_655  S
C580        C581   1.406       .  A
C580        H585   1.084       .  S
C581        C582   1.416       .  A
C582        S586   1.796       .  S
C583        C588   1.420       .  A
C583        C592   1.411       .  A
S584        H600   1.400   1_455  S
S586        H597   1.408       .  S
C588        C589   1.399       .  A
C588        S593   1.803       .  S
C589        C590   1.398       .  A
C589        H594   1.080       .  S
C590        C591   1.409       .  A
C591        C592   1.408       .  A
C591        S595   1.800       .  S
C592        H596   1.083       .  S
S593        H598   1.407       .  S
S595        H599   1.406       .  S
C601        C602   1.404       .  A
C601        C606   1.394       .  A
C601        H611   1.084       .  S
C602        C603   1.419       .  A
C602        C607   1.483       .  S
C603        C604   1.401       .  A
C603        S608   1.807       .  S
C604        C605   1.400       .  A
C604        H609   1.084       .  S
C605        C606   1.409       .  A
C606        S610   1.807       .  S
C607        C612   1.411       .  A
C607        C616   1.408       .  A
S608        H624   1.401       .  S
S610        H621   1.405       .  S
C612        C613   1.395       .  A
C612        S617   1.810       .  S
C613        C614   1.401       .  A
C613        H618   1.080       .  S
C614        C615   1.408       .  A
C615        C616   1.404       .  A
C615        S619   1.801       .  S
C616        H620   1.083       .  S
S617        H622   1.407       .  S
S619        H623   1.405       .  S
C625        C630   1.403       .  A
C625       C1298   1.404       .  A
C625        H635   1.084       .  S
C626        C627   1.421       .  A
C626       C1969   1.410   1_554  A
C626        C631   1.504       .  S
C627        C628   1.398       .  A
C627        S632   1.799       .  S
C628       C1973   1.399       .  A
C628        H633   1.084       .  S
C629        C630   1.411       .  A
C629       C1300   1.401       .  A
C630        S634   1.802       .  S
C631        C636   1.419       .  A
C631       C1984   1.402   1_554  A
S632        H648   1.405       .  S
S634        H645   1.406       .  S
C636        C637   1.410       .  A
C636        S641   1.806       .  S
C637       C1982   1.406       .  A
C637        H642   1.082       .  S
C638        C639   1.421       .  A
C638       C1309   1.409       .  A
C639        C640   1.393       .  A
C639        S643   1.803       .  S
C640       C1303   1.398       .  A
C640        H644   1.085       .  S
S641        H646   1.407       .  S
S643        H647   1.405       .  S
C649        C654   1.403       .  A
C649       C1994   1.404       .  A
C649        H659   1.076       .  S
C650        C651   1.420       .  A
C650       C1321   1.404       .  A
C650        C655   1.501       .  S
C651        C652   1.404       .  A
C651        S656   1.803       .  S
C652        C653   1.399       .  A
C652        H657   1.083       .  S
C653       C1326   1.415       .  A
C654       C1997   1.414       .  A
C654        S658   1.801       .  S
C655        C660   1.417       .  A
C655       C1336   1.401       .  A
S656        H672   1.406       .  S
S658        H669   1.404       .  S
C660        C661   1.413       .  A
C660        S665   1.807       .  S
C661        C662   1.407       .  A
C661        H666   1.083       .  S
C662       C1335   1.420       .  A
C663        C664   1.404       .  A
C663       C2006   1.422       .  A
C663        S667   1.807       .  S
C664       C1999   1.404       .  A
C664        H668   1.084       .  S
S665        H670   1.407       .  S
S667        H671   1.396       .  S
C673        C675   1.551       .  S
C673        C677   1.551       .  S
C673        C676   1.565       .  S
C673        C697   1.704       .  S
C674        C678   1.564       .  S
C674        C680   1.552       .  S
C674        C679   1.571       .  S
C674        C696   1.721       .  S
C675        C683   1.393       .  A
C675       C1350   1.444       .  A
C676        C687   1.381       .  A
C676       C1351   1.451       .  A
C677        C691   1.376       .  A
C677       C1352   1.430       .  A
C678        C681   1.384       .  A
C679        C685   1.387       .  A
C680        C688   1.370       .  A
C681        N682   1.363       .  A
C681        H694   1.079       .  S
N682        N826   1.427       .  S
C683       N1354   1.345       .  A
C683        H684   1.080       .  S
C685        H695   1.078       .  S
N686       C1357   1.359       .  A
N686        C687   1.350       .  A
N686       C1325   1.446       .  S
C687        H693   1.080       .  S
C688        H690   1.080       .  S
N689       C1360   1.362       .  A
N689        C691   1.355       .  A
N689       C1301   1.439       .  S
C691        H692   1.081       .  S
C696        C698   1.567       .  S
C696        C700   1.574       .  S
C696        C699   1.555       .  S
C697        C701   1.562       .  S
C697        C703   1.555       .  S
C697        C702   1.555       .  S
C698        C706   1.386       .  A
C698        C701   1.431       .  A
C699        C710   1.371       .  A
C699        C702   1.424       .  A
C700        C714   1.391       .  A
C700        C703   1.444       .  A
C701        C704   1.384       .  A
C702        C708   1.381       .  A
C703        C711   1.373       .  A
C704        N705   1.362       .  A
C704        H717   1.079       .  S
N705        C706   1.363       .  A
N705        N849   1.425       .  S
C706        H707   1.078       .  S
C708        N709   1.357       .  A
C708        H718   1.080       .  S
N709        C710   1.356       .  A
N709       C1286   1.438       .  S
C710        H716   1.073       .  S
C711        N712   1.348       .  A
C711        H713   1.080       .  S
N712        C714   1.361       .  A
N712       C1262   1.445       .  S
C714        H715   1.078       .  S
C719        C721   1.556       .  S
C719        C723   1.570       .  S
C719        C722   1.544       .  S
C719        C742   1.729       .  S
C720        C724   1.563       .  S
C720       C1398   1.560       .  S
C720       C1397   1.570       .  S
C720        C743   1.728       .  S
C721        C729   1.377       .  A
C722        C733   1.366       .  A
C722        C725   1.425       .  A
C723        C737   1.378       .  A
C723        C726   1.455       .  A
C724       C1393   1.442       .  A
C724        C727   1.378       .  A
C727       N1400   1.360       .  A
C727        H740   1.079       .  S
N728        C729   1.356       .  A
C729        H730   1.078       .  S
C731       C1397   1.387       .  A
C731       N1404   1.358       .  A
C731        H741   1.080       .  S
N732        C733   1.355       .  A
N732       C1238   1.420       .  S
C733        H739   1.082       .  S
C734       C1398   1.381       .  A
C734       N1407   1.353       .  A
C734        H736   1.079       .  S
N735        C737   1.353       .  A
N735       C1205   1.441       .  S
C737        H738   1.074       .  S
C742        C744   1.554       .  S
C742        C746   1.561       .  S
C742        C745   1.552       .  S
C743        C747   1.560       .  S
C743        C749   1.564       .  S
C743        C748   1.571       .  S
C744        C752   1.373       .  A
C744        C747   1.431       .  A
C745        C756   1.363       .  A
C745        C748   1.436       .  A
C746        C760   1.384       .  A
C746        C749   1.445       .  A
C747        C750   1.377       .  A
C748        C754   1.391       .  A
C749        C757   1.374       .  A
C750        N751   1.364       .  A
C750        H763   1.080       .  S
N751        C752   1.361       .  A
N751        N895   1.417       .  S
C752        H753   1.080       .  S
C754        N755   1.359       .  A
C754        H764   1.078       .  S
N755        C756   1.349       .  A
N755       C1166   1.440       .  S
C756        H762   1.062       .  S
C757        N758   1.351       .  A
C757        H759   1.079       .  S
N758        C760   1.355       .  A
N758       C1181   1.436       .  S
C760        H761   1.081       .  S
O765       Ni771   1.921   1_565  S
O765       C1458   1.280       .  A
O766       Ni789   1.919       .  S
O766        C775   1.270       .  A
O767       Ni789   2.000       .  S
O767       Ni783   1.929       .  S
O767        H790   0.944       .  S
C768        O785   1.294       .  A
C768        O777   1.277       .  A
C768       C1133   1.502       .  S
O769       Ni788   1.891       .  S
O769        C775   1.261       .  A
O770       Ni788   1.820       .  S
O770        C772   1.259       .  A
Ni771       O774   1.939   1_455  S
Ni771       O776   1.828   1_445  S
Ni771      O1439   1.903   1_445  S
C772        O782   1.234       .  A
C772        C804   1.529       .  S
O773       Ni789   1.915   1_545  S
O774        C779   1.273       .  A
C775       C1229   1.454       .  S
O776        C778   1.262       .  A
O777       Ni788   1.907       .  S
C778        O784   1.284       .  A
C778        C798   1.441       .  S
C779       O1445   1.267       .  A
C779       C1310   1.481       .  S
H780       O1453   0.944       .  S
O781       Ni789   1.906       .  S
O781       Ni783   1.998       .  S
O781       Ni788   1.888       .  S
O782       Ni783   1.873       .  S
Ni783       O787   1.928   1_655  S
Ni783       O785   1.972       .  S
O784      Ni1461   1.909       .  S
C786        O787   1.278       .  A
C786       C1118   1.489       .  S
O791       Ni797   1.943   1_465  S
O791        C812   1.278       .  A
O792       Ni815   1.908       .  S
O792        C801   1.278       .  A
O793       Ni797   1.898   1_565  S
O793       Ni815   1.958       .  S
O793       Ni809   1.921       .  S
O793        H816   0.947       .  S
C794        O811   1.265       .  A
C794        O803   1.278       .  A
C794       C1085   1.483       .  S
O795       Ni814   1.963       .  S
O795        C801   1.287       .  A
O796       Ni814   1.835       .  S
O796        C798   1.258       .  A
Ni797       O800   1.891       .  S
Ni797       O802   1.892   1_545  S
C798        O808   1.258       .  A
O799       Ni815   1.980   1_545  S
O799        C805   1.289       .  A
O800        C805   1.270       .  A
C801       C1190   1.505       .  S
O802        C804   1.250       .  A
O803       Ni814   1.948       .  S
C804        O810   1.260       .  A
C805       C1253   1.504       .  S
H806        O807   0.956       .  S
O807       Ni815   1.950       .  S
O807       Ni809   1.984       .  S
O807       Ni814   1.868       .  S
O808       Ni809   1.878       .  S
Ni809       O813   1.917   1_655  S
Ni809       O811   1.907       .  S
O810       Ni815   1.891       .  S
C812        O813   1.272       .  A
C812       C1061   1.491       .  S
C817       C1491   1.565       .  S
C817       C1493   1.563   1_455  S
C817       C1492   1.552       .  S
C817        C841   1.712       .  S
C818        C822   1.558       .  S
C818        C824   1.569   1_455  S
C818        C823   1.560       .  S
C818        C840   1.729       .  S
C819        C827   1.390       .  A
C819        C822   1.434       .  A
C820        C831   1.369       .  A
C820        C823   1.437       .  A
C821        C835   1.379       .  A
C821        C824   1.432       .  A
C822        C825   1.383       .  A
C823        C829   1.384       .  A
C824        C832   1.378       .  A
C825        N826   1.362   1_455  A
C825        H838   1.079   1_455  S
N826        C827   1.364   1_655  A
H828       C1499   1.079       .  S
C829        N830   1.339       .  A
C829        H839   1.069       .  S
N830        C831   1.337       .  A
N830       C1046   1.425       .  S
C832        N833   1.358       .  A
C832        H834   1.075       .  S
N833        C835   1.358       .  A
N833       C1142   1.443       .  S
H836       C1507   1.080       .  S
H837       C1503   1.073       .  S
C840        C842   1.568   1_455  S
C840        C844   1.555       .  S
C840        C843   1.577       .  S
C841        C845   1.556   1_455  S
C841        C847   1.564       .  S
C841        C846   1.571       .  S
C842        C850   1.385       .  A
C842        C845   1.425       .  A
C843        C854   1.400       .  A
C843        C846   1.442       .  A
C844        C858   1.377       .  A
C844        C847   1.430       .  A
C845        C848   1.384       .  A
C846        C852   1.380       .  A
C847        C855   1.379       .  A
C848        N849   1.363       .  A
C848        H861   1.080       .  S
N849        C850   1.364       .  A
C850        H851   1.079       .  S
C852        N853   1.345       .  A
C852        H862   1.064       .  S
N853        C854   1.345       .  A
N853       C1013   1.450       .  S
C854        H860   1.067       .  S
C855        N856   1.358       .  A
C855        H857   1.080       .  S
N856        C858   1.359       .  A
N856       C1094   1.437       .  S
C858        H859   1.082       .  S
C863        C865   1.563       .  S
C863        C867   1.557   1_545  S
C863        C866   1.561       .  S
C863        C886   1.738       .  S
C864        C868   1.562       .  S
C864        C870   1.585   1_545  S
C864        C869   1.562       .  S
C864        C887   1.740       .  S
C865        C873   1.379       .  A
C865       C1540   1.441       .  A
C866        C877   1.371       .  A
C866       C1541   1.436       .  A
C867        C881   1.375       .  A
C867       C1542   1.449       .  A
C868        C871   1.379   1_545  A
C869        C875   1.383       .  A
C870        C878   1.391       .  A
C871        H884   1.080       .  S
N872       C1543   1.358   1_565  A
N872        C873   1.361   1_565  A
N872       N1400   1.417       .  S
C873        H874   1.079   1_545  S
C875        H885   1.077       .  S
N876       C1547   1.352       .  A
N876        C877   1.353       .  A
N876       C1661   1.435       .  S
C877        H883   1.066       .  S
C878        H880   1.080       .  S
N879       C1550   1.352       .  A
N879        C881   1.351       .  A
N879       C1781   1.427       .  S
C881        H882   1.082       .  S
C886        C888   1.558   1_545  S
C886        C890   1.566       .  S
C886        C889   1.568       .  S
C887        C891   1.562   1_545  S
C887        C893   1.563       .  S
C887        C892   1.556       .  S
C888        C896   1.375       .  A
C888        C891   1.442       .  A
C889        C900   1.388       .  A
C889        C892   1.436       .  A
C890        C904   1.380       .  A
C890        C893   1.449       .  A
C891        C894   1.376       .  A
C892        C898   1.367       .  A
C893        C901   1.379       .  A
C894        N895   1.361       .  A
C894        H907   1.079       .  S
N895        C896   1.358       .  A
C896        H897   1.079       .  S
C898        N899   1.354       .  A
C898        H908   1.072       .  S
N899        C900   1.363       .  A
N899       C1070   1.444       .  S
C900        H906   1.079       .  S
C901        N902   1.350       .  A
C901        H903   1.078       .  S
N902        C904   1.353       .  A
N902        C965   1.436       .  S
C904        H905   1.079       .  S
O909       Ni915   1.893       .  S
O909        C930   1.276       .  A
O910       Ni933   1.892       .  S
O910        C919   1.269       .  A
O911       Ni915   1.913       .  S
O911       Ni933   1.884       .  S
O911       Ni927   2.042       .  S
C912       O1601   1.298       .  A
C912        O921   1.284       .  A
C912       C1334   1.494       .  S
O913       Ni932   1.941       .  S
O913       C1591   1.282       .  A
O914       Ni932   1.845       .  S
O914        C916   1.256       .  A
Ni915       O918   1.931       .  S
Ni915       O920   1.833       .  S
C916        O926   1.231       .  A
C916        C948   1.371       .  S
O917       Ni933   1.896       .  S
O917        C923   1.261       .  A
O918        C923   1.273       .  A
C919       C1214   1.490       .  S
O920        C922   1.255       .  A
O921       Ni932   1.941       .  S
C922        O928   1.288       .  A
C922        C942   1.436       .  S
C923       C1037   1.482       .  S
H924        O925   0.944       .  S
O925       Ni933   1.890       .  S
O925       Ni927   1.939       .  S
O926      Ni1599   1.844       .  S
Ni927       O929   1.960       .  S
O928       Ni933   1.898       .  S
C930        C998   1.498       .  S
O931      Ni1599   1.972       .  S
O931       C1602   1.293       .  A
Ni932      O1597   1.890       .  S
H934       O1583   0.950       .  S
O935       Ni941   1.934       .  S
O935        C956   1.278       .  A
O936       Ni959   1.949       .  S
O936        C945   1.295       .  A
O937       Ni941   1.846       .  S
O937       Ni959   1.981       .  S
O937       Ni953   1.981       .  S
O937        H960   0.955       .  S
C938        O955   1.264       .  A
C938        O947   1.268       .  A
C938       C1277   1.473       .  S
O939       Ni958   1.942       .  S
O939        C945   1.286       .  A
O940       Ni958   1.858       .  S
O940        C942   1.251       .  A
Ni941       O944   1.929       .  S
Ni941       O946   1.869       .  S
C942        O952   1.253       .  A
O943       Ni959   1.961       .  S
O943        C949   1.284       .  A
O944        C949   1.272       .  A
C945       C1157   1.501       .  S
O946        C948   1.276       .  A
O947       Ni958   1.938       .  S
C948        O954   1.260       .  A
C949       C1022   1.508       .  S
H950        O951   0.952       .  S
O951       Ni959   1.993       .  S
O951       Ni953   1.967       .  S
O951       Ni958   1.904       .  S
O952       Ni953   1.920       .  S
Ni953       O957   1.881       .  S
Ni953       O955   1.913       .  S
O954       Ni959   1.849       .  S
C956        O957   1.261       .  A
C956        C974   1.467       .  S
C961        C962   1.398       .  A
C961        C966   1.386       .  A
C961        H971   1.083       .  S
C962        C963   1.419       .  A
C962        C967   1.485       .  S
C963        C964   1.404       .  A
C963        S968   1.804       .  S
C964        C965   1.401       .  A
C964        H969   1.083       .  S
C965        C966   1.415       .  A
C966        S970   1.800       .  S
C967        C972   1.415       .  A
C967        C976   1.402       .  A
S968        H984   1.400       .  S
S970        H981   1.391       .  S
C972        C973   1.395       .  A
C972        S977   1.802       .  S
C973        C974   1.397       .  A
C973        H978   1.083       .  S
C974        C975   1.412       .  A
C975        C976   1.400       .  A
C975        S979   1.808       .  S
C976        H980   1.081       .  S
S977        H982   1.407       .  S
S979        H983   1.407       .  S
C985        C986   1.410       .  A
C985        C990   1.398       .  A
C985        H995   1.083       .  S
C986        C991   1.493       .  S
C987       C1658   1.415       .  A
C987        C988   1.400       .  A
C987        S992   1.804       .  S
C988       C1661   1.403       .  A
C988        H993   1.083       .  S
C989        C990   1.403       .  A
C990        S994   1.802       .  S
C991       C1000   1.410       .  A
S992       H1008   1.397       .  S
S994       H1005   1.405       .  S
C996       C1663   1.405       .  A
C996        C997   1.395       .  A
C996       S1001   1.810       .  S
C997       C1670   1.411       .  A
C997       H1002   1.078       .  S
C998        C999   1.415       .  A
C999       C1000   1.414       .  A
C999       S1003   1.806       .  S
C1000      H1004   1.080       .  S
S1001      H1006   1.406       .  S
S1003      H1007   1.405       .  S
C1009      C1010   1.407       .  A
C1009      C1014   1.409       .  A
C1009      H1019   1.083       .  S
C1010      C1011   1.425       .  A
C1010      C1015   1.511       .  S
C1011      C1012   1.407       .  A
C1011      S1016   1.808       .  S
C1012      C1013   1.401       .  A
C1012      H1017   1.083       .  S
C1013      C1014   1.420       .  A
C1014      S1018   1.804       .  S
C1015      C1020   1.422       .  A
C1015      C1024   1.401       .  A
S1016      H1032   1.403       .  S
S1018      H1029   1.397       .  S
C1020      C1021   1.417       .  A
C1020      S1025   1.806       .  S
C1021      C1022   1.408       .  A
C1021      H1026   1.082       .  S
C1022      C1023   1.425       .  A
C1023      C1024   1.400       .  A
C1023      S1027   1.803       .  S
C1024      H1028   1.084       .  S
S1025      H1030   1.407       .  S
S1027      H1031   1.408       .  S
C1033      C1034   1.398       .  A
C1033      C1038   1.394       .  A
C1033      H1043   1.084       .  S
C1034      C1035   1.414       .  A
C1034      C1039   1.480       .  S
C1035      C1036   1.392       .  A
C1035      S1040   1.803       .  S
C1036      C1037   1.404       .  A
C1036      H1041   1.084       .  S
C1037      C1038   1.424       .  A
C1038      S1042   1.806       .  S
C1039      C1044   1.413       .  A
C1039      C1048   1.401       .  A
S1040      H1056   1.407       .  S
S1042      H1053   1.398       .  S
C1044      C1045   1.396       .  A
C1044      S1049   1.808       .  S
C1045      C1046   1.397       .  A
C1045      H1050   1.083       .  S
C1046      C1047   1.417       .  A
C1047      C1048   1.392       .  A
S1049      H1054   1.407       .  S
S1051      C1719   1.807       .  S
S1051      H1055   1.396       .  S
H1052      C1720   1.084       .  S
C1057      C1058   1.410       .  A
C1057      C1062   1.405       .  A
C1057      H1067   1.081       .  S
C1058      C1059   1.426   1_565  A
C1058      C1063   1.518   1_565  S
C1059      C1060   1.406       .  A
C1059      S1064   1.805       .  S
C1060      C1061   1.403   1_545  A
C1060      H1065   1.084       .  S
C1061      C1062   1.411       .  A
C1062      S1066   1.800       .  S
C1063      C1068   1.428   1_545  A
C1063      C1072   1.411       .  A
S1064      H1080   1.407       .  S
S1066      H1077   1.405       .  S
C1068      C1069   1.410       .  A
C1068      S1073   1.809       .  S
C1069      C1070   1.401   1_565  A
C1069      H1074   1.082       .  S
C1070      C1071   1.407       .  A
C1071      C1072   1.403       .  A
C1071      S1075   1.804       .  S
C1072      H1076   1.082       .  S
S1073      H1078   1.406       .  S
S1075      H1079   1.407       .  S
C1081      C1082   1.412   1_655  A
C1081      C1086   1.397       .  A
C1081      H1091   1.083       .  S
C1082      C1083   1.417       .  A
C1082      C1087   1.501       .  S
C1083      C1084   1.407       .  A
C1083      S1088   1.806       .  S
C1084      C1085   1.407   1_455  A
C1084      H1089   1.078       .  S
C1085      C1086   1.402       .  A
C1086      S1090   1.805       .  S
C1087      C1092   1.427       .  A
C1087      C1096   1.406       .  A
S1088      H1104   1.406       .  S
S1090      H1101   1.407       .  S
C1092      C1093   1.409       .  A
C1092      S1097   1.807       .  S
C1093      C1094   1.402       .  A
C1093      H1098   1.083       .  S
C1094      C1095   1.406       .  A
C1095      C1096   1.390       .  A
C1095      S1099   1.797   1_455  S
C1096      H1100   1.084   1_455  S
S1097      H1102   1.403       .  S
S1099      H1103   1.402       .  S
C1105      C1106   1.411       .  A
C1105      C1110   1.400       .  A
C1105      H1115   1.079   1_565  S
C1106      C1111   1.521       .  S
C1107      C1778   1.415       .  A
C1107      C1108   1.401       .  A
C1107      S1112   1.804       .  S
C1108      C1781   1.401       .  A
C1108      H1113   1.083       .  S
C1109      C1110   1.408       .  A
C1110      S1114   1.797   1_565  S
C1111      C1116   1.420       .  A
S1112      H1128   1.405       .  S
S1114      H1125   1.403       .  S
C1116      C1117   1.413       .  A
C1116      S1121   1.809       .  S
C1117      C1118   1.406       .  A
C1117      H1122   1.082       .  S
C1119      C1790   1.405       .  A
C1119      C1120   1.383       .  A
C1119      S1123   1.800   1_565  S
C1120      C1783   1.402       .  A
C1120      H1124   1.084       .  S
S1121      H1126   1.407       .  S
S1123      H1127   1.408   1_545  S
C1129      C1130   1.412       .  A
C1129      C1134   1.407       .  A
C1129      H1139   1.083   1_655  S
C1130      C1131   1.416       .  A
C1130      C1135   1.508       .  S
C1131      C1132   1.404       .  A
C1132      C1133   1.412       .  A
C1133      C1134   1.410       .  A
C1134      S1138   1.794   1_655  S
C1135      C1140   1.416       .  A
C1135      C1144   1.412       .  A
S1136      C1803   1.804       .  S
S1136      H1152   1.407       .  S
H1137      C1804   1.084       .  S
S1138      H1149   1.407       .  S
C1140      C1141   1.402       .  A
C1141      C1142   1.400       .  A
C1141      H1146   1.082   1_655  S
C1142      C1143   1.410       .  A
C1143      C1144   1.409       .  A
C1143      S1147   1.803       .  S
C1144      H1148   1.083       .  S
S1145      C1812   1.797   1_455  S
S1145      H1150   1.407       .  S
S1147      H1151   1.406       .  S
C1153      C1154   1.401       .  A
C1153      C1158   1.399       .  A
C1153      H1163   1.084       .  S
C1154      C1155   1.419       .  A
C1154      C1159   1.497       .  S
C1155      C1156   1.405       .  A
C1155      S1160   1.807       .  S
C1156      C1157   1.409       .  A
C1156      H1161   1.084       .  S
C1157      C1158   1.427       .  A
C1158      S1162   1.807       .  S
C1159      C1164   1.420       .  A
C1159      C1168   1.402       .  A
S1160      H1176   1.400       .  S
S1162      H1173   1.393       .  S
C1164      C1165   1.408       .  A
C1164      S1169   1.808       .  S
C1165      C1166   1.399       .  A
C1165      H1170   1.082       .  S
C1166      C1167   1.415       .  A
C1167      C1168   1.400       .  A
C1167      S1171   1.800       .  S
C1168      H1172   1.084       .  S
S1169      H1174   1.407       .  S
S1171      H1175   1.405       .  S
C1177      C1178   1.413       .  A
C1177      C1182   1.399       .  A
C1177      H1187   1.074       .  S
C1178      C1179   1.428       .  A
C1178      C1183   1.519       .  S
C1179      C1180   1.403       .  A
C1179      S1184   1.801       .  S
C1180      C1181   1.400       .  A
C1180      H1185   1.084       .  S
C1181      C1182   1.400       .  A
C1182      S1186   1.801   1_565  S
C1183      C1188   1.424       .  A
C1183      C1192   1.412       .  A
S1184      H1200   1.406       .  S
S1186      H1197   1.407   1_545  S
C1188      C1189   1.402       .  A
C1188      S1193   1.811   1_565  S
C1189      C1190   1.409       .  A
C1189      H1194   1.081       .  S
C1190      C1191   1.416       .  A
C1191      C1192   1.408       .  A
C1191      S1195   1.808       .  S
C1192      H1196   1.080       .  S
S1193      H1198   1.406       .  S
S1195      H1199   1.407       .  S
C1201      C1202   1.396       .  A
C1201      C1206   1.385       .  A
C1201      H1211   1.085       .  S
C1202      C1207   1.489       .  S
C1203      C1874   1.417       .  A
C1203      C1204   1.405       .  A
C1203      S1208   1.802       .  S
C1204      C1877   1.402       .  A
C1204      H1209   1.083       .  S
C1205      C1206   1.414       .  A
C1206      S1210   1.797       .  S
C1207      C1216   1.404       .  A
S1208      H1224   1.406       .  S
S1210      H1221   1.388       .  S
C1212      C1879   1.412       .  A
C1212      C1213   1.387       .  A
C1212      S1217   1.807       .  S
C1213      C1886   1.403       .  A
C1213      H1218   1.082       .  S
C1214      C1215   1.422       .  A
C1215      C1216   1.405       .  A
C1215      S1219   1.801       .  S
C1216      H1220   1.083       .  S
S1217      H1222   1.407       .  S
S1219      H1223   1.403       .  S
C1225      C1898   1.404       .  A
C1225      C1230   1.394       .  A
C1225      H1235   1.081       .  S
C1226      C1227   1.421       .  A
C1226      C1231   1.471       .  S
C1227      C1228   1.398       .  A
C1227      S1232   1.807       .  S
C1228      C1229   1.396       .  A
C1228      H1233   1.083       .  S
C1230      C1901   1.414       .  A
C1230      S1234   1.800       .  S
C1231      C1240   1.407       .  A
S1232      H1248   1.402       .  S
S1234      H1245   1.397       .  S
C1236      C1903   1.420       .  A
C1236      C1237   1.412       .  A
C1236      S1241   1.802       .  S
C1237      C1910   1.404       .  A
C1237      H1242   1.082       .  S
C1238      C1239   1.402       .  A
C1239      C1240   1.391       .  A
C1239      S1243   1.802       .  S
C1240      H1244   1.082       .  S
S1241      H1246   1.407       .  S
S1243      H1247   1.406       .  S
C1249      C1250   1.419       .  A
C1249      C1254   1.418       .  A
C1249      H1259   1.080       .  S
C1250      C1251   1.417       .  A
C1250      C1255   1.513       .  S
C1251      C1252   1.393       .  A
C1251      S1256   1.809       .  S
C1252      C1253   1.409       .  A
C1252      H1257   1.084       .  S
C1253      C1254   1.414       .  A
C1254      S1258   1.799       .  S
C1255      C1260   1.418       .  A
C1255      C1264   1.411       .  A
S1256      H1272   1.401       .  S
S1258      H1269   1.406       .  S
C1260      C1261   1.408       .  A
C1260      S1265   1.802       .  S
C1261      C1262   1.404       .  A
C1261      H1266   1.081       .  S
C1262      C1263   1.410       .  A
C1263      C1264   1.401       .  A
C1263      S1267   1.803       .  S
C1264      H1268   1.077       .  S
S1265      H1270   1.407       .  S
S1267      H1271   1.406       .  S
C1273      C1274   1.404       .  A
C1273      C1278   1.399       .  A
C1273      H1283   1.083       .  S
C1274      C1275   1.418       .  A
C1274      C1279   1.488       .  S
C1275      C1276   1.404       .  A
C1275      S1280   1.806       .  S
C1276      C1277   1.401       .  A
C1276      H1281   1.084       .  S
C1277      C1278   1.410       .  A
C1278      S1282   1.804       .  S
C1279      C1284   1.410       .  A
C1279      C1288   1.409       .  A
S1280      H1296   1.400       .  S
S1282      H1293   1.405       .  S
C1284      C1285   1.397       .  A
C1284      S1289   1.805       .  S
C1285      C1286   1.401       .  A
C1285      H1290   1.081       .  S
C1286      C1287   1.410       .  A
C1287      C1288   1.408       .  A
C1287      S1291   1.801       .  S
C1288      H1292   1.083       .  S
S1289      H1294   1.407       .  S
S1291      H1295   1.406       .  S
C1297      C1970   1.411       .  A
C1297      C1302   1.406       .  A
C1297      H1307   1.081       .  S
C1298      C1299   1.408       .  A
C1298      C1303   1.473       .  S
C1299      C1300   1.389       .  A
C1299      S1304   1.802       .  S
C1300      H1305   1.082       .  S
C1301      C1972   1.398       .  A
C1301      C1302   1.411       .  A
C1302      S1306   1.802       .  S
C1303      C1308   1.407       .  A
S1304      H1320   1.407       .  S
S1306      H1317   1.406       .  S
C1308      C1309   1.401       .  A
C1308      S1313   1.804       .  S
C1309      H1314   1.082       .  S
C1310      C1981   1.406       .  A
C1310      C1311   1.410       .  A
C1311      C1312   1.394       .  A
C1311      S1315   1.801       .  S
C1312      C1975   1.406       .  A
C1312      H1316   1.076       .  S
S1313      H1318   1.407       .  S
S1315      H1319   1.404       .  S
C1321      C1326   1.402       .  A
C1321      H1331   1.079       .  S
C1322      C1993   1.404       .  A
C1322      C1323   1.425       .  A
C1322      C1327   1.508       .  S
C1323      C1324   1.407       .  A
C1323      S1328   1.805       .  S
C1324      C1325   1.401       .  A
C1324      H1329   1.083       .  S
C1325      C1998   1.415       .  A
C1326      S1330   1.801       .  S
C1327      C1332   1.422       .  A
C1327      C2008   1.401       .  A
S1328      H1344   1.404       .  S
S1330      H1341   1.403       .  S
C1332      C1333   1.417       .  A
C1332      S1337   1.807       .  S
C1333      C1334   1.407       .  A
C1333      H1338   1.083       .  S
C1334      C2007   1.421       .  A
C1335      C1336   1.398       .  A
C1335      S1339   1.809       .  S
C1336      H1340   1.083       .  S
S1337      H1342   1.407       .  S
S1339      H1343   1.392       .  S
C1345      C1347   1.569       .  S
C1345      C1349   1.557       .  S
C1345      C1348   1.566       .  S
C1345      C1369   1.713       .  S
C1346      C1350   1.574       .  S
C1346      C1352   1.565       .  S
C1346      C1351   1.579       .  S
C1346      C1368   1.776       .  S
C1347      C1355   1.404       .  A
C1348      C1359   1.381       .  A
C1349      C1363   1.380       .  A
C1350      C1353   1.370       .  A
C1351      C1357   1.389       .  A
C1352      C1360   1.376       .  A
C1353      N1354   1.345       .  A
C1353      H1366   1.066       .  S
N1354      N1498   1.417       .  S
C1355      H1356   1.080       .  S
C1357      H1367   1.075       .  S
N1358      C1359   1.353   1_554  A
N1358      C1997   1.446       .  S
C1359      H1365   1.079       .  S
C1360      H1362   1.079       .  S
N1361      C1363   1.356   1_554  A
N1361      C1973   1.443       .  S
C1363      H1364   1.081       .  S
C1368      C1370   1.575       .  S
C1368      C1372   1.567       .  S
C1368      C1371   1.561       .  S
C1369      C1373   1.560       .  S
C1369      C1375   1.565       .  S
C1369      C1374   1.557       .  S
C1370      C1378   1.374       .  A
C1370      C1373   1.449       .  A
C1371      C1382   1.368       .  A
C1371      C1374   1.433       .  A
C1372      C1386   1.380       .  A
C1372      C1375   1.444       .  A
C1373      C1376   1.394       .  A
C1374      C1380   1.384       .  A
C1375      C1383   1.376       .  A
C1376      N1377   1.346       .  A
C1376      H1389   1.080       .  S
N1377      C1378   1.343       .  A
N1377      N1521   1.416       .  S
C1378      H1379   1.067       .  S
C1380      N1381   1.358       .  A
C1380      H1390   1.080       .  S
N1381      C1382   1.355       .  A
N1381      C1958   1.439       .  S
C1382      H1388   1.071       .  S
C1383      N1384   1.352       .  A
C1383      H1385   1.078       .  S
N1384      C1386   1.360       .  A
N1384      C1934   1.443       .  S
C1386      H1387   1.075       .  S
C1391      C1393   1.559       .  S
C1391      C1395   1.557       .  S
C1391      C1394   1.558       .  S
C1391      C1414   1.734       .  S
C1392      C1396   1.560       .  S
C1392      C1415   1.731       .  S
C1393      C1401   1.375       .  A
C1394      C1405   1.376       .  A
C1394      C1397   1.438       .  A
C1395      C1409   1.371       .  A
C1395      C1398   1.441       .  A
C1396      C1399   1.374       .  A
C1399      H1412   1.079       .  S
N1400      C1401   1.360       .  A
C1401      H1402   1.079       .  S
C1403      H1413   1.082       .  S
N1404      C1405   1.355       .  A
N1404      C1910   1.442       .  S
C1405      H1411   1.077       .  S
C1406      H1408   1.079       .  S
N1407      C1409   1.351       .  A
N1407      C1877   1.433       .  S
C1409      H1410   1.072       .  S
C1414      C1416   1.560       .  S
C1414      C1418   1.553       .  S
C1414      C1417   1.558       .  S
C1415      C1419   1.565       .  S
C1415      C1421   1.549       .  S
C1415      C1420   1.569       .  S
C1416      C1424   1.374       .  A
C1416      C1419   1.445       .  A
C1417      C1428   1.371       .  A
C1417      C1420   1.444       .  A
C1418      C1432   1.373       .  A
C1418      C1421   1.436       .  A
C1419      C1422   1.378       .  A
C1420      C1426   1.393       .  A
C1421      C1429   1.366       .  A
C1422      N1423   1.361       .  A
C1422      H1435   1.079       .  S
N1423      C1424   1.358       .  A
N1423      N1567   1.416       .  S
C1424      H1425   1.079       .  S
C1426      N1427   1.356       .  A
C1426      H1436   1.077       .  S
N1427      C1428   1.348       .  A
N1427      C1838   1.443       .  S
C1428      H1434   1.066       .  S
C1429      N1430   1.352       .  A
C1429      H1431   1.082       .  S
N1430      C1432   1.357       .  A
N1430      C1853   1.426       .  S
C1432      H1433   1.082       .  S
O1437     Ni1443   1.926   1_565  S
O1438     Ni1461   1.967       .  S
O1438      C1447   1.288       .  A
O1439     Ni1461   1.959       .  S
O1439     Ni1455   1.972       .  S
O1439      H1462   0.948       .  S
C1440      O1457   1.286       .  A
C1440      O1449   1.274       .  A
C1440      C1805   1.498       .  S
O1441     Ni1460   1.914       .  S
O1441      C1447   1.274       .  A
O1442     Ni1460   1.854       .  S
O1442      C1444   1.254       .  A
Ni1443     O1446   1.934   1_455  S
Ni1443     O1448   1.836   1_445  S
C1444      O1454   1.248       .  A
C1444      C1476   1.469       .  S
O1445     Ni1461   1.903   1_545  S
O1446      C1451   1.274   1_556  A
C1447      C1901   1.488       .  S
O1448      C1450   1.272       .  A
O1449     Ni1460   1.904       .  S
C1450      O1456   1.264       .  A
C1450      C1470   1.384       .  S
C1451      C1982   1.494       .  S
O1453     Ni1461   1.890       .  S
O1453     Ni1455   1.968       .  S
O1453     Ni1460   1.891       .  S
O1454     Ni1455   1.872       .  S
Ni1455     O1459   1.902   1_655  S
Ni1455     O1457   1.960       .  S
C1458      O1459   1.273       .  A
C1458      C1790   1.461       .  S
O1463     Ni1469   1.898   1_455  S
O1463      C1484   1.276   1_545  A
O1464     Ni1487   1.882       .  S
O1464      C1473   1.272       .  A
O1465     Ni1469   1.887   1_565  S
O1465     Ni1487   1.902       .  S
O1465     Ni1481   2.018       .  S
O1465      H1488   0.952       .  S
C1466      O1483   1.281       .  A
C1466      O1475   1.289       .  A
C1466      C1757   1.499       .  S
O1467     Ni1486   1.944       .  S
O1467      C1473   1.281       .  A
O1468     Ni1486   1.841       .  S
O1468      C1470   1.258       .  A
Ni1469     O1472   1.895       .  S
Ni1469     O1474   1.816   1_545  S
C1470      O1480   1.229       .  A
O1471     Ni1487   1.945   1_545  S
O1471      C1477   1.268       .  A
O1472      C1477   1.259       .  A
C1473      C1862   1.476       .  S
O1474      C1476   1.251       .  A
O1475     Ni1486   1.965       .  S
C1476      O1482   1.282       .  A
C1477      C1925   1.492       .  S
H1478      O1479   0.951       .  S
O1479     Ni1487   1.900       .  S
O1479     Ni1481   1.971       .  S
O1479     Ni1486   1.872       .  S
O1480     Ni1481   1.830       .  S
Ni1481     O1485   1.971   1_655  S
Ni1481     O1483   1.939       .  S
O1482     Ni1487   1.917       .  S
C1484      O1485   1.291       .  A
C1484      C1733   1.504       .  S
C1489      C1513   1.713       .  S
C1490      C1494   1.572       .  S
C1490      C1496   1.572   1_455  S
C1490      C1495   1.564       .  S
C1490      C1512   1.792       .  S
C1491      C1499   1.394   1_455  A
C1491      C1494   1.448       .  A
C1492      C1503   1.370       .  A
C1492      C1495   1.443       .  A
C1493      C1507   1.383       .  A
C1493      C1496   1.446       .  A
C1494      C1497   1.372   1_455  A
C1495      C1501   1.380       .  A
C1496      C1504   1.378       .  A
C1497      N1498   1.345       .  A
C1497      H1510   1.063       .  S
N1498      C1499   1.345       .  A
C1501      N1502   1.340       .  A
C1501      H1511   1.067       .  S
N1502      C1503   1.338       .  A
N1502      C1718   1.426       .  S
C1504      N1505   1.356       .  A
C1504      H1506   1.071       .  S
N1505      C1507   1.357       .  A
N1505      C1814   1.445       .  S
C1512      C1514   1.583   1_455  S
C1512      C1516   1.570       .  S
C1512      C1515   1.578       .  S
C1513      C1517   1.546   1_455  S
C1513      C1519   1.562       .  S
C1513      C1518   1.574       .  S
C1514      C1522   1.373       .  A
C1514      C1517   1.442       .  A
C1515      C1526   1.403       .  A
C1515      C1518   1.447       .  A
C1516      C1530   1.381       .  A
C1516      C1519   1.438       .  A
C1517      C1520   1.390       .  A
C1518      C1524   1.376       .  A
C1519      C1527   1.379       .  A
C1520      N1521   1.344       .  A
C1520      H1533   1.081       .  S
N1521      C1522   1.348       .  A
C1522      H1523   1.070       .  S
C1524      N1525   1.342       .  A
C1524      H1534   1.065       .  S
N1525      C1526   1.346       .  A
N1525      C1685   1.448       .  S
C1526      H1532   1.068       .  S
C1527      N1528   1.358       .  A
C1527      H1529   1.080       .  S
N1528      C1530   1.362       .  A
N1528      C1766   1.442       .  S
C1530      H1531   1.081       .  S
C1535      C1537   1.563       .  S
C1535      C1539   1.561   1_545  S
C1535      C1538   1.563       .  S
C1535      C1558   1.727       .  S
C1536      C1540   1.556       .  S
C1536      C1542   1.560   1_545  S
C1536      C1541   1.554       .  S
C1536      C1559   1.727       .  S
C1537      C1545   1.377       .  A
C1538      C1549   1.373       .  A
C1539      C1553   1.381       .  A
C1540      C1543   1.374       .  A
C1541      C1547   1.379       .  A
C1542      C1550   1.376       .  A
C1543      H1556   1.079   1_545  S
N1544      C1545   1.364   1_564  A
C1545      H1546   1.080   1_545  S
C1547      H1557   1.077       .  S
N1548      C1549   1.353   1_554  A
C1549      H1555   1.067       .  S
C1550      H1552   1.081       .  S
N1551      C1553   1.356   1_554  A
C1553      H1554   1.081       .  S
C1558      C1560   1.555   1_545  S
C1558      C1562   1.569       .  S
C1558      C1561   1.562       .  S
C1559      C1563   1.558   1_545  S
C1559      C1565   1.561       .  S
C1559      C1564   1.552       .  S
C1560      C1568   1.375       .  A
C1560      C1563   1.435       .  A
C1561      C1572   1.383       .  A
C1561      C1564   1.432       .  A
C1562      C1576   1.379       .  A
C1562      C1565   1.450       .  A
C1563      C1566   1.374       .  A
C1564      C1570   1.366       .  A
C1565      C1573   1.381       .  A
C1566      N1567   1.361       .  A
C1566      H1579   1.079       .  S
N1567      C1568   1.360       .  A
C1568      H1569   1.079       .  S
C1570      N1571   1.353       .  A
C1570      H1580   1.070       .  S
N1571      C1572   1.362       .  A
N1571      C1742   1.439       .  S
C1572      H1578   1.081       .  S
C1573      N1574   1.352       .  A
C1573      H1575   1.080       .  S
N1574      C1576   1.353       .  A
N1574      C1637   1.436       .  S
C1576      H1577   1.079       .  S
O1581     Ni1587   1.892       .  S
O1581      C1602   1.273       .  A
O1582     Ni1605   1.890       .  S
O1582      C1591   1.268       .  A
O1583     Ni1587   1.912       .  S
O1583     Ni1605   1.889       .  S
O1583     Ni1599   2.039       .  S
C1584      O1593   1.287   1_554  A
C1584      C2006   1.495       .  S
O1585     Ni1604   1.947       .  S
O1586     Ni1604   1.859       .  S
O1586      C1588   1.259       .  A
Ni1587     O1590   1.931       .  S
Ni1587     O1592   1.844       .  S
C1588      O1598   1.230       .  A
C1588      C1620   1.380       .  S
O1589     Ni1605   1.891       .  S
O1589      C1595   1.261       .  A
O1590      C1595   1.274       .  A
C1591      C1886   1.487       .  S
O1592      C1594   1.256       .  A
O1593     Ni1604   1.947       .  S
C1594      O1600   1.284       .  A
C1594      C1614   1.430       .  S
C1595      C1709   1.479       .  S
H1596      O1597   0.941       .  S
O1597     Ni1605   1.893       .  S
O1597     Ni1599   1.939       .  S
Ni1599     O1601   1.961       .  S
O1600     Ni1605   1.892       .  S
C1602      C1670   1.496       .  S
O1607     Ni1613   1.941       .  S
O1607      C1628   1.278       .  A
O1608     Ni1631   1.947       .  S
O1608      C1617   1.294       .  A
O1609     Ni1613   1.845       .  S
O1609     Ni1631   1.980       .  S
O1609     Ni1625   1.989       .  S
O1609      H1632   0.955       .  S
C1610      O1627   1.263       .  A
C1610      O1619   1.267       .  A
C1610      C1949   1.464       .  S
O1611     Ni1630   1.941       .  S
O1611      C1617   1.284       .  A
O1612     Ni1630   1.865       .  S
O1612      C1614   1.255       .  A
Ni1613     O1616   1.938       .  S
Ni1613     O1618   1.880       .  S
C1614      O1624   1.248       .  A
O1615     Ni1631   1.949       .  S
O1615      C1621   1.283       .  A
O1616      C1621   1.274       .  A
C1617      C1829   1.506       .  S
O1618      C1620   1.277       .  A
O1619     Ni1630   1.934       .  S
C1620      O1626   1.262       .  A
C1621      C1694   1.508       .  S
H1622      O1623   0.964       .  S
O1623     Ni1631   1.979       .  S
O1623     Ni1625   1.965       .  S
O1623     Ni1630   1.905       .  S
O1624     Ni1625   1.920       .  S
Ni1625     O1629   1.873       .  S
Ni1625     O1627   1.904       .  S
O1626     Ni1631   1.852       .  S
C1628      O1629   1.257       .  A
C1628      C1646   1.471       .  S
C1633      C1634   1.400       .  A
C1633      C1638   1.388       .  A
C1633      H1643   1.083       .  S
C1634      C1635   1.421       .  A
C1634      C1639   1.491       .  S
C1635      C1636   1.405       .  A
C1635      S1640   1.801       .  S
C1636      C1637   1.401       .  A
C1636      H1641   1.083       .  S
C1637      C1638   1.414       .  A
C1638      S1642   1.802       .  S
C1639      C1644   1.418       .  A
C1639      C1648   1.403       .  A
S1640      H1656   1.401       .  S
S1642      H1653   1.391       .  S
C1644      C1645   1.397       .  A
C1644      S1649   1.805       .  S
C1645      C1646   1.396       .  A
C1645      H1650   1.083       .  S
C1646      C1647   1.414       .  A
C1647      C1648   1.401       .  A
C1647      S1651   1.808       .  S
C1648      H1652   1.081       .  S
S1649      H1654   1.406       .  S
S1651      H1655   1.407       .  S
C1657      C1658   1.411       .  A
C1657      C1662   1.402       .  A
C1657      H1667   1.084       .  S
C1658      C1663   1.492       .  S
C1659      C1660   1.405       .  A
C1659      S1664   1.804       .  S
C1660      H1665   1.084       .  S
C1661      C1662   1.405       .  A
C1662      S1666   1.803       .  S
C1663      C1672   1.411       .  A
S1664      H1680   1.395       .  S
S1666      H1677   1.406       .  S
C1668      C1669   1.399       .  A
C1668      S1673   1.812       .  S
C1669      H1674   1.078       .  S
C1670      C1671   1.415       .  A
C1671      C1672   1.415       .  A
C1671      S1675   1.805       .  S
C1672      H1676   1.082       .  S
S1673      H1678   1.406       .  S
S1675      H1679   1.403       .  S
C1681      C1682   1.408       .  A
C1681      C1686   1.408       .  A
C1681      H1691   1.083       .  S
C1682      C1683   1.424       .  A
C1682      C1687   1.511       .  S
C1683      C1684   1.405       .  A
C1683      S1688   1.805       .  S
C1684      C1685   1.401       .  A
C1684      H1689   1.083       .  S
C1685      C1686   1.419       .  A
C1686      S1690   1.805       .  S
C1687      C1692   1.421       .  A
C1687      C1696   1.403       .  A
S1688      H1704   1.404       .  S
S1690      H1701   1.397       .  S
C1692      C1693   1.414       .  A
C1692      S1697   1.806       .  S
C1693      C1694   1.407       .  A
C1693      H1698   1.082       .  S
C1694      C1695   1.424       .  A
C1695      C1696   1.402       .  A
C1695      S1699   1.803       .  S
C1696      H1700   1.083       .  S
S1697      H1702   1.407       .  S
S1699      H1703   1.408       .  S
C1705      C1706   1.397       .  A
C1705      C1710   1.393       .  A
C1705      H1715   1.084       .  S
C1706      C1707   1.414       .  A
C1706      C1711   1.475       .  S
C1707      C1708   1.391       .  A
C1707      S1712   1.805       .  S
C1708      C1709   1.404       .  A
C1708      H1713   1.084       .  S
C1709      C1710   1.424       .  A
C1710      S1714   1.805       .  S
C1711      C1716   1.412       .  A
C1711      C1720   1.398       .  A
S1712      H1728   1.407       .  S
S1714      H1725   1.399       .  S
C1716      C1717   1.398       .  A
C1716      S1721   1.807       .  S
C1717      C1718   1.399       .  A
C1717      H1722   1.083       .  S
C1718      C1719   1.418       .  A
C1719      C1720   1.390       .  A
S1721      H1726   1.407       .  S
S1723      H1727   1.395       .  S
C1729      C1730   1.411       .  A
C1729      C1734   1.410       .  A
C1729      H1739   1.080       .  S
C1730      C1731   1.413   1_565  A
C1730      C1735   1.504   1_565  S
C1731      C1732   1.396       .  A
C1731      S1736   1.807       .  S
C1732      C1733   1.411   1_545  A
C1732      H1737   1.083       .  S
C1733      C1734   1.416       .  A
C1734      S1738   1.797       .  S
C1735      C1740   1.414   1_545  A
C1735      C1744   1.410       .  A
S1736      H1752   1.408       .  S
S1738      H1749   1.407       .  S
C1740      C1741   1.402       .  A
C1740      S1745   1.794       .  S
C1741      C1742   1.399   1_565  A
C1741      H1746   1.083       .  S
C1742      C1743   1.412       .  A
C1743      C1744   1.404       .  A
C1743      S1747   1.804       .  S
C1744      H1748   1.083       .  S
S1745      H1750   1.407       .  S
S1747      H1751   1.405       .  S
C1753      C1754   1.409   1_655  A
C1753      C1758   1.399       .  A
C1753      H1763   1.082       .  S
C1754      C1755   1.419       .  A
C1754      C1759   1.507       .  S
C1755      C1756   1.409       .  A
C1755      S1760   1.804       .  S
C1756      C1757   1.411   1_455  A
C1756      H1761   1.082       .  S
C1757      C1758   1.413       .  A
C1758      S1762   1.810       .  S
C1759      C1764   1.426       .  A
C1759      C1768   1.407   1_455  A
S1760      H1776   1.405       .  S
S1762      H1773   1.407       .  S
C1764      C1765   1.412       .  A
C1764      S1769   1.805       .  S
C1765      C1766   1.403       .  A
C1765      H1770   1.083       .  S
C1766      C1767   1.407       .  A
C1767      C1768   1.392   1_455  A
C1767      S1771   1.796   1_455  S
C1768      H1772   1.084       .  S
S1769      H1774   1.406       .  S
S1771      H1775   1.404       .  S
C1777      C1778   1.398       .  A
C1777      C1782   1.382       .  A
C1777      H1787   1.085       .  S
C1778      C1783   1.470       .  S
C1779      C1780   1.411       .  A
C1779      S1784   1.806   1_554  S
C1780      H1785   1.083   1_554  S
C1781      C1782   1.412       .  A
C1782      S1786   1.800   1_565  S
C1783      C1788   1.407       .  A
S1784      H1800   1.401       .  S
S1786      H1797   1.391       .  S
C1788      C1789   1.401       .  A
C1788      S1793   1.805       .  S
C1789      C1790   1.405       .  A
C1789      H1794   1.081       .  S
C1791      C1792   1.389       .  A
C1791      S1795   1.806   1_565  S
C1792      H1796   1.085       .  S
S1793      H1798   1.407       .  S
S1795      H1799   1.392       .  S
C1801      C1802   1.414       .  A
C1801      C1806   1.410       .  A
C1801      H1811   1.082   1_655  S
C1802      C1803   1.418       .  A
C1802      C1807   1.514       .  S
C1803      C1804   1.402       .  A
C1804      C1805   1.406       .  A
C1805      C1806   1.413       .  A
C1806      S1810   1.799   1_655  S
C1807      C1812   1.417       .  A
C1807      C1816   1.413       .  A
S1808      H1824   1.407       .  S
S1810      H1821   1.407       .  S
C1812      C1813   1.405       .  A
C1813      C1814   1.401       .  A
C1813      H1818   1.081   1_655  S
C1814      C1815   1.410       .  A
C1815      C1816   1.408       .  A
C1815      S1819   1.802       .  S
C1816      H1820   1.083       .  S
S1817      H1822   1.407       .  S
S1819      H1823   1.406       .  S
C1825      C1826   1.402       .  A
C1825      C1830   1.400       .  A
C1825      H1835   1.084       .  S
C1826      C1827   1.421       .  A
C1826      C1831   1.503       .  S
C1827      C1828   1.405       .  A
C1827      S1832   1.806       .  S
C1828      C1829   1.409       .  A
C1828      H1833   1.083       .  S
C1829      C1830   1.428       .  A
C1830      S1834   1.805       .  S
C1831      C1836   1.422       .  A
C1831      C1840   1.404       .  A
S1832      H1848   1.397       .  S
S1834      H1845   1.396       .  S
C1836      C1837   1.408       .  A
C1836      S1841   1.809       .  S
C1837      C1838   1.398       .  A
C1837      H1842   1.082       .  S
C1838      C1839   1.415       .  A
C1839      C1840   1.402       .  A
C1839      S1843   1.800       .  S
C1840      H1844   1.083       .  S
S1841      H1846   1.407       .  S
S1843      H1847   1.403       .  S
C1849      C1850   1.409       .  A
C1849      C1854   1.397       .  A
C1849      H1859   1.080   1_565  S
C1850      C1851   1.415       .  A
C1850      C1855   1.485       .  S
C1851      C1852   1.383       .  A
C1851      S1856   1.801       .  S
C1852      C1853   1.396       .  A
C1852      H1857   1.079       .  S
C1853      C1854   1.405       .  A
C1854      S1858   1.801   1_565  S
C1855      C1860   1.411       .  A
C1855      C1864   1.406       .  A
S1856      H1872   1.406       .  S
S1858      H1869   1.407       .  S
C1860      C1861   1.394       .  A
C1860      S1865   1.809   1_565  S
C1861      C1862   1.406       .  A
C1861      H1866   1.079       .  S
C1862      C1863   1.413       .  A
C1863      C1864   1.396       .  A
C1863      S1867   1.809       .  S
C1864      H1868   1.082       .  S
S1865      H1870   1.405       .  S
S1867      H1871   1.407       .  S
C1873      C1874   1.398       .  A
C1873      C1878   1.385       .  A
C1873      H1883   1.085       .  S
C1874      C1879   1.484       .  S
C1875      C1876   1.400       .  A
C1875      S1880   1.802   1_554  S
C1876      H1881   1.083       .  S
C1877      C1878   1.415       .  A
C1878      S1882   1.803       .  S
C1879      C1888   1.403       .  A
S1880      H1896   1.406       .  S
S1882      H1893   1.392       .  S
C1884      C1885   1.383       .  A
C1884      S1889   1.807       .  S
C1885      H1890   1.082       .  S
C1886      C1887   1.422       .  A
C1887      C1888   1.408       .  A
C1887      S1891   1.810       .  S
C1888      H1892   1.082       .  S
S1889      H1894   1.407       .  S
S1891      H1895   1.407       .  S
C1897      C1902   1.412       .  A
C1897      H1907   1.082       .  S
C1898      C1899   1.428       .  A
C1898      C1903   1.518       .  S
C1899      C1900   1.414       .  A
C1899      S1904   1.799       .  S
C1900      C1901   1.402       .  A
C1900      H1905   1.084       .  S
C1902      S1906   1.806       .  S
C1903      C1912   1.415       .  A
S1904      H1920   1.401       .  S
S1906      H1917   1.407       .  S
C1908      C1909   1.412   1_554  A
C1908      S1913   1.800   1_554  S
C1909      H1914   1.083       .  S
C1910      C1911   1.404       .  A
C1911      C1912   1.400       .  A
C1911      S1915   1.802       .  S
C1912      H1916   1.083       .  S
S1913      H1918   1.407       .  S
S1915      H1919   1.406       .  S
C1921      C1922   1.407       .  A
C1921      C1926   1.404       .  A
C1921      H1931   1.084       .  S
C1922      C1923   1.416       .  A
C1922      C1927   1.490       .  S
C1923      C1924   1.395       .  A
C1923      S1928   1.810       .  S
C1924      C1925   1.408       .  A
C1924      H1929   1.084       .  S
C1925      C1926   1.414       .  A
C1926      S1930   1.795       .  S
C1927      C1932   1.413       .  A
C1927      C1936   1.405       .  A
S1928      H1944   1.395       .  S
S1930      H1941   1.405       .  S
C1932      C1933   1.401       .  A
C1932      S1937   1.807       .  S
C1933      C1934   1.404       .  A
C1933      H1938   1.079       .  S
C1934      C1935   1.414       .  A
C1935      C1936   1.402       .  A
C1935      S1939   1.801       .  S
C1936      H1940   1.081       .  S
S1937      H1942   1.407       .  S
S1939      H1943   1.405       .  S
C1945      C1946   1.405       .  A
C1945      C1950   1.396       .  A
C1945      H1955   1.084       .  S
C1946      C1947   1.418       .  A
C1946      C1951   1.484       .  S
C1947      C1948   1.401       .  A
C1947      S1952   1.806       .  S
C1948      C1949   1.399       .  A
C1948      H1953   1.084       .  S
C1949      C1950   1.409       .  A
C1950      S1954   1.805       .  S
C1951      C1956   1.409       .  A
C1951      C1960   1.407       .  A
S1952      H1968   1.401       .  S
S1954      H1965   1.406       .  S
C1956      C1957   1.398       .  A
C1956      S1961   1.807       .  S
C1957      C1958   1.404       .  A
C1957      H1962   1.080       .  S
C1958      C1959   1.410       .  A
C1959      C1960   1.405       .  A
C1959      S1963   1.801       .  S
C1960      H1964   1.083       .  S
S1961      H1966   1.407       .  S
S1963      H1967   1.405       .  S
C1969      C1974   1.410       .  A
C1969      H1979   1.083       .  S
C1970      C1971   1.416       .  A
C1970      C1975   1.498       .  S
C1971      C1972   1.389       .  A
C1971      S1976   1.797       .  S
C1972      H1977   1.079       .  S
C1973      C1974   1.412   1_554  A
C1974      S1978   1.801       .  S
C1975      C1980   1.416       .  A
S1976      H1992   1.404       .  S
S1978      H1989   1.406   1_556  S
C1980      C1981   1.404       .  A
C1980      S1985   1.807       .  S
C1981      H1986   1.082       .  S
C1982      C1983   1.418   1_554  A
C1983      C1984   1.397       .  A
C1983      S1987   1.801       .  S
C1984      H1988   1.078       .  S
S1985      H1990   1.407       .  S
S1987      H1991   1.407       .  S
C1993      C1998   1.402       .  A
C1993      H2003   1.078       .  S
C1994      C1995   1.420   1_554  A
C1994      C1999   1.508       .  S
C1995      C1996   1.408       .  A
C1995      S2000   1.802       .  S
C1996      C1997   1.402   1_556  A
C1996      H2001   1.083       .  S
C1998      S2002   1.800       .  S
C1999      C2004   1.419   1_554  A
S2000      H2016   1.407       .  S
S2002      H2013   1.402       .  S
C2004      C2005   1.413       .  A
C2004      S2009   1.805       .  S
C2005      C2006   1.404   1_556  A
C2005      H2010   1.083       .  S
C2007      C2008   1.397       .  A
C2007      S2011   1.809       .  S
C2008      H2012   1.083       .  S
S2009      H2014   1.406       .  S
S2011      H2015   1.392       .  S
