geometry optimzed in LAMMPS
_audit_creation_date              2020-11-30 
_audit_creation_method            'lammps2cif' 
_symmetry_space_group_name_H-M    'P1' 
_symmetry_Int_Tables_number       1 
_symmetry_cell_setting            triclinic 
loop_ 
_symmetry_equiv_pos_as_xyz 
  x,y,z 
_cell_length_a                    44.34845448 
_cell_length_b                    44.35159132489004 
_cell_length_c                    31.652563026673047 
_cell_angle_alpha                 89.83860234264537 
_cell_angle_beta                  89.81501592773512 
_cell_angle_gamma                 91.46318982236852 
loop_ 
_atom_site_label 
_atom_site_type_symbol 
_atom_site_fract_x 
_atom_site_fract_y 
_atom_site_fract_z 
_atom_site_charge 
C1          C  0.18062390  0.49125935  0.25273838     0.82400
N2          N  0.16530345  0.49174952  0.21563735    -0.75900
C3          C  0.13468958  0.99248899  0.21599119     0.84900
N4          N  0.11954851  0.99254656  0.25325242    -0.75800
C5          C  0.13485209  0.99202744  0.29022673     0.85000
N6          N  0.16536431  0.49132451  0.28999364    -0.77500
C7          C  0.33147176  0.48983437  0.25405890     0.82400
N8          N  0.34693277  0.49058144  0.29105176    -0.75900
C9          C  0.37755042  0.49096921  0.29062327     0.84900
N10         N  0.39261866  0.49057311  0.25329659    -0.75800
C11         C  0.37722680  0.48982439  0.21635898     0.85000
N12         N  0.34662361  0.48949437  0.21670222    -0.77500
C13         C  0.00633558  0.16592721  0.25266651     0.82400
N14         N  0.00641807  0.15055393  0.21559661    -0.75900
C15         C  0.00679878  0.11996005  0.21590660     0.84900
N16         N  0.00703078  0.10482861  0.25315450    -0.75800
C17         C  0.00695462  0.12014906  0.29013397     0.85000
N18         N  0.00661872  0.15071895  0.28994823    -0.77500
C19         C  0.00396984  0.31672028  0.25375760     0.82400
N20         N  0.50384259  0.33206043  0.21651523    -0.75900
C21         C  0.50395670  0.36264983  0.21640643     0.84900
N22         N  0.50438545  0.37791791  0.25344266    -0.75800
C23         C  0.50463049  0.36273561  0.29066138     0.85000
N24         N  0.50445168  0.33211468  0.29087732    -0.77500
O25         O  0.09079351  0.49208103  0.07467743    -0.73100
O26         O  0.05245691  0.49187505  0.12312463    -0.52000
C27         C  0.08048099  0.49211689  0.11271500     0.80600
O28         O  0.00657535  0.07643572  0.43194608    -0.57700
O29         O  0.00702016  0.03838966  0.38340357    -0.50700
C30         C  0.00678597  0.06631325  0.39389081     0.72700
O31         O  0.00821771  0.07598946  0.07465457    -0.72200
O32         O  0.00643546  0.03774508  0.12322738    -0.52800
C33         C  0.00742588  0.06573908  0.11273581     0.78700
O34         O  0.09112250  0.49154512  0.43201734    -0.57400
O35         O  0.05302706  0.49194206  0.38355586    -0.50500
C36         C  0.08096878  0.49173165  0.39398314     0.75300
Zr37       Zr  0.06975121  0.49166442  0.00339453     2.54700
O38         O  0.10859998  0.03150214  0.00295643    -0.77900
O39         O  0.10616835  0.45163366  0.50323730    -0.91700
Zr40       Zr  0.00775765  0.05501771  0.00325956     2.64700
O41         O  0.04927497  0.09199631  0.00382230    -0.96300
O42         O  0.46933513  0.09359937  0.50431204    -0.78400
O43         O  0.03906482  0.02369211  0.04413673    -0.81700
O44         O  0.03923331  0.02407866  0.46269425    -2.16400
O45         O  0.00605648  0.40693850  0.43187187    -0.65100
O46         O  0.00567669  0.44513921  0.38328177    -0.49700
C47         C  0.00587862  0.41714693  0.39376898     0.73600
O48         O  0.42108832  0.48957978  0.07427623    -0.58000
O49         O  0.45909853  0.49042031  0.12289506    -0.50000
C50         C  0.43114904  0.48975347  0.11238455     0.75400
O51         O  0.42161618  0.49243860  0.43198862    -0.69400
O52         O  0.45982921  0.49249229  0.38337877    -0.48100
C53         C  0.43184091  0.49263553  0.39388067     0.76800
O54         O  0.00340489  0.40639764  0.07450333    -0.64800
O55         O  0.00479318  0.44447147  0.12302431    -0.52000
C56         C  0.00383924  0.41651725  0.11256833     0.75200
Zr57       Zr  0.00469951  0.42785789  0.00325920     2.77500
O58         O  0.46380230  0.39015970  0.00376778    -0.95500
O59         O  0.04323309  0.38976592  0.00416765    -0.76300
Zr60       Zr  0.44262606  0.49137961  0.00299739     2.70100
O61         O  0.40262309  0.45282483  0.00063682    -0.77600
O62         O  0.40680475  0.03202838  0.00523045    -0.96700
Zr63       Zr  0.00584606  0.49121771  0.08350508     2.21500
Zr64       Zr  0.00629870  0.49168371  0.42305468     2.11100
O65         O  0.47340209  0.45915504  0.46263596    -2.45400
O66         O  0.47300239  0.45902979  0.04381346    -0.77400
O67         O  0.03780728  0.45950513  0.46255008    -0.69600
O68         O  0.47449221  0.02357596  0.04376854    -2.30500
O69         O  0.03756179  0.45916843  0.04392508    -2.26700
O70         O  0.47474452  0.02384507  0.46246551    -0.71300
H71         H  0.05181639  0.03645611  0.44429524     0.80700
H72         H  0.46234838  0.03576569  0.06209016     0.81800
H73         H  0.46087394  0.44690136  0.44421491     0.84000
H74         H  0.04949977  0.44685238  0.06233646     0.81600
H75         H  0.45151019  0.08405322  0.01295837     0.44600
H76         H  0.41285500  0.04554557  0.48220976     0.43600
H77         H  0.41030120  0.43604281  0.01789668     0.43300
H78         H  0.45322434  0.39368671  0.47572557     0.41200
H79         H  0.06068942  0.39902331  0.48977903     0.44300
H80         H  0.10124886  0.43914206  0.02806586     0.39100
H81         H  0.10083619  0.04700817  0.02232508     0.45200
H82         H  0.05917771  0.08971293  0.47517043     0.41700
H83         H  0.47386201  0.37078718  0.99894851     0.46600
H84         H  0.12577428  0.46203563  0.01067286     0.45300
H85         H  0.03961288  0.11152098  0.99849574     0.45400
H86         H  0.38738527  0.02247108  0.99655963     0.45800
C87         C  0.00521817  0.37935468  0.32947489    -0.11100
C88         C  0.00566875  0.39562993  0.35994985    -0.12600
C89         C  0.00352096  0.39500798  0.14647079    -0.11100
C90         C  0.00365055  0.37902301  0.17731331    -0.12600
C91         C  0.00699441  0.10376502  0.32920369    -0.11100
C92         C  0.00688223  0.08779933  0.36003539    -0.12600
C93         C  0.00709190  0.10332814  0.17710980    -0.11100
C94         C  0.00738534  0.08718363  0.14655430    -0.12600
C95         C  0.00573335  0.19825564  0.25253169    -0.16300
C96         C  0.00510676  0.22540444  0.25284685     0.07800
C97         C  0.00441483  0.25719821  0.25340981     0.09600
C98         C  0.00404370  0.28436112  0.25379537    -0.17100
C99         C  0.39426423  0.49196048  0.32940036    -0.11100
C100        C  0.41038446  0.49259181  0.36001976    -0.12600
C101        C  0.39358413  0.48951007  0.17716010    -0.11100
C102        C  0.40957721  0.48942487  0.14628242    -0.12600
C103        C  0.10243187  0.49178186  0.36007199    -0.11100
C104        C  0.11838464  0.49185490  0.32921007    -0.12600
C105        C  0.10190206  0.49237877  0.14657302    -0.11100
C106        C  0.11808481  0.49248362  0.17709919    -0.12600
C107        C  0.21295617  0.49058190  0.25270394    -0.16300
C108        C  0.24011361  0.49010103  0.25326320     0.07800
C109        C  0.27192456  0.48974340  0.25403160     0.09600
C110        C  0.29910156  0.48966032  0.25435298    -0.17100
C111        C  0.18097620  0.49138784  0.75279436     0.82400
N112        N  0.16562249  0.49170020  0.71571722    -0.75900
C113        C  0.13503461  0.99207371  0.71602054     0.84900
N114        N  0.11986896  0.99181932  0.75328511    -0.75800
C115        C  0.13515684  0.99134633  0.79029178     0.85000
N116        N  0.16575464  0.49131874  0.79008300    -0.77500
C117        C  0.33171278  0.48983614  0.75388177     0.82400
N118        N  0.34720873  0.49052197  0.79083652    -0.75900
C119        C  0.37781736  0.49086112  0.79031999     0.84900
N120        N  0.39283637  0.49056947  0.75297869    -0.75800
C121        C  0.37739585  0.48988860  0.71610710     0.85000
N122        N  0.34680489  0.48952326  0.71649500    -0.77500
C123        C  0.00603336  0.16622132  0.75275131     0.82400
N124        N  0.00648515  0.15082939  0.71570862    -0.75900
C125        C  0.00679234  0.12023519  0.71606012     0.84900
N126        N  0.00667034  0.10512240  0.75333869    -0.75800
C127        C  0.00626487  0.12044166  0.79031629     0.85000
N128        N  0.00593549  0.15102643  0.79007891    -0.77500
C129        C  0.00393768  0.31700202  0.75380162     0.82400
N130        N  0.50337442  0.33225221  0.71659979    -0.75900
C131        C  0.50339021  0.36283655  0.71644472     0.84900
N132        N  0.50397461  0.37814503  0.75342945    -0.75800
C133        C  0.50449809  0.36299096  0.79064133     0.85000
N134        N  0.50447137  0.33239099  0.79093018    -0.77500
O135        O  0.09103012  0.49301321  0.57454668    -0.73100
O136        O  0.05280020  0.49200298  0.62316733    -0.52000
C137        C  0.08081075  0.49266490  0.61266477     0.80600
O138        O  0.00705849  0.07634275  0.93195676    -0.57700
O139        O  0.00710767  0.03832966  0.88335308    -0.50700
C140        C  0.00701204  0.06626826  0.89387385     0.72700
O141        O  0.00779871  0.07633464  0.57467012    -0.72200
O142        O  0.00721080  0.03805926  0.62321210    -0.52800
C143        C  0.00760459  0.06606598  0.61275325     0.78700
O144        O  0.09144906  0.49158902  0.93231167    -0.57400
O145        O  0.05340827  0.49143100  0.88374362    -0.50500
C146        C  0.08135301  0.49146163  0.89423958     0.75300
Zr147      Zr  0.06975227  0.49180702  0.50327875     2.54700
O148        O  0.10903021  0.03118013  0.50170048    -0.77900
O149        O  0.10645993  0.45177073  0.00311995    -0.91700
Zr150      Zr  0.00759891  0.05523655  0.50332275     2.64700
O151        O  0.04868045  0.09275125  0.50242380    -0.96300
O152        O  0.47035280  0.09431516  0.00316470    -0.78400
O153        O  0.03913804  0.02397577  0.54406057    -0.81700
O154        O  0.03940328  0.02391974  0.96257880    -2.16400
O155        O  0.00584212  0.40688184  0.93189906    -0.65100
O156        O  0.00618386  0.44509519  0.88327617    -0.49700
C157        C  0.00609055  0.41711892  0.89381296     0.73600
O158        O  0.42128576  0.49007269  0.57440362    -0.58000
O159        O  0.45932358  0.49118769  0.62299612    -0.50000
C160        C  0.43137591  0.49046863  0.61246191     0.75400
O161        O  0.42180674  0.49211303  0.93150873    -0.69400
O162        O  0.46010764  0.49133831  0.88306203    -0.48100
C163        C  0.43211325  0.49178747  0.89345702     0.76800
O164        O  0.00363102  0.40673685  0.57478098    -0.64800
O165        O  0.00454105  0.44482618  0.62331423    -0.52000
C166        C  0.00373017  0.41687684  0.61284576     0.75200
Zr167      Zr  0.00484203  0.42790623  0.50331191     2.77500
O168        O  0.46385115  0.39037606  0.50274000    -0.95500
O169        O  0.04314200  0.38954615  0.50453631    -0.76300
Zr170      Zr  0.44277686  0.49128499  0.50326447     2.70100
O171        O  0.40349456  0.45198435  0.50147730    -0.77600
O172        O  0.40693861  0.03206102  0.50597223    -0.96700
Zr173      Zr  0.00615950  0.49144133  0.58359330     2.21500
Zr174      Zr  0.00649693  0.49158731  0.92293906     2.11100
O175        O  0.47331319  0.45915751  0.96252764    -2.45400
O176        O  0.47331265  0.45907301  0.54411217    -0.77400
O177        O  0.03783460  0.45938694  0.96263696    -0.69600
O178        O  0.47465126  0.02359516  0.54394513    -2.30500
O179        O  0.03775418  0.45926202  0.54396773    -2.26700
O180        O  0.47483114  0.02376838  0.96236537    -0.71300
H181        H  0.05201036  0.03626449  0.94417029     0.80700
H182        H  0.46253754  0.03573542  0.56236608     0.81800
H183        H  0.46080808  0.44687246  0.94411529     0.84000
H184        H  0.04975296  0.44699493  0.56236967     0.81600
H185        H  0.45268630  0.08472772  0.52158125     0.44600
H186        H  0.41265688  0.04530883  0.98121795     0.43600
H187        H  0.41248231  0.43459116  0.51600405     0.43300
H188        H  0.45247040  0.39379384  0.97742161     0.41200
H189        H  0.06109853  0.39982615  0.99096654     0.44300
H190        H  0.10286849  0.44088004  0.53038022     0.39100
H191        H  0.09912499  0.04923231  0.51298837     0.45200
H192        H  0.06086080  0.08805143  0.97771983     0.41700
H193        H  0.47393513  0.37089902  0.49895844     0.46600
H194        H  0.12596392  0.46218107  0.50649939     0.45300
H195        H  0.03857860  0.11226288  0.49905701     0.45400
H196        H  0.38752787  0.02258923  0.49709246     0.45800
C197        C  0.00557118  0.37952178  0.82948639    -0.11100
C198        C  0.00600861  0.39566885  0.86003246    -0.12600
C199        C  0.00310614  0.39537214  0.64671984    -0.11100
C200        C  0.00300159  0.37932387  0.67748241    -0.12600
C201        C  0.00647829  0.10400830  0.82940627    -0.11100
C202        C  0.00678094  0.08785675  0.86007641    -0.12600
C203        C  0.00728909  0.10358600  0.67725911    -0.11100
C204        C  0.00759177  0.08748505  0.64664049    -0.12600
C205        C  0.00561043  0.19856198  0.75251122    -0.16300
C206        C  0.00513930  0.22571779  0.75277448     0.07800
C207        C  0.00453971  0.25750902  0.75340328     0.09600
C208        C  0.00414174  0.28466356  0.75383217    -0.17100
C209        C  0.39457633  0.49147973  0.82900828    -0.11100
C210        C  0.41072996  0.49176520  0.85956159    -0.12600
C211        C  0.39370899  0.48991313  0.67696043    -0.11100
C212        C  0.40979618  0.49012723  0.64623462    -0.12600
C213        C  0.10287051  0.49144802  0.86034818    -0.11100
C214        C  0.11880032  0.49147602  0.82943770    -0.12600
C215        C  0.10228580  0.49274472  0.64653006    -0.11100
C216        C  0.11839381  0.49243506  0.67716132    -0.12600
C217        C  0.21330507  0.49110281  0.75268889    -0.16300
C218        C  0.24045439  0.49075443  0.75318351     0.07800
C219        C  0.27223304  0.49025194  0.75392351     0.09600
C220        C  0.29938276  0.48990792  0.75423450    -0.17100
C221        C  0.18062972  0.99137525  0.25274254     0.82400
N222        N  0.16528133  0.99189602  0.21566925    -0.75900
C223        C  0.13470929  0.49233472  0.21590967     0.84900
N224        N  0.11953699  0.49241056  0.25314347    -0.75800
C225        C  0.13480508  0.49192076  0.29014540     0.85000
N226        N  0.16540712  0.99141706  0.29002209    -0.77500
C227        C  0.33142918  0.98983636  0.25401847     0.82400
N228        N  0.34690649  0.99041551  0.29100042    -0.75900
C229        C  0.37752412  0.99083990  0.29053945     0.84900
N230        N  0.39257116  0.99063848  0.25318876    -0.75800
C231        C  0.37715597  0.99004859  0.21626734     0.85000
N232        N  0.34655694  0.98969049  0.21664252    -0.77500
C233        C  0.00639396  0.66593422  0.25268138     0.82400
N234        N  0.00644507  0.65056634  0.21560049    -0.75900
C235        C  0.00680609  0.61996847  0.21589498     0.84900
N236        N  0.00704511  0.60483070  0.25313594    -0.75800
C237        C  0.00699728  0.62013742  0.29012540     0.85000
N238        N  0.00668503  0.65071161  0.28995738    -0.77500
C239        C  0.00393477  0.81675705  0.25374189     0.82400
N240        N  0.50373554  0.83199518  0.21650237    -0.75900
C241        C  0.50393021  0.86258629  0.21634858     0.84900
N242        N  0.50439754  0.87788046  0.25336288    -0.75800
C243        C  0.50460659  0.86272462  0.29060358     0.85000
N244        N  0.50435258  0.83210363  0.29086541    -0.77500
O245        O  0.09082757  0.99215639  0.07470831    -0.73100
O246        O  0.05247178  0.99198585  0.12312902    -0.52000
C247        C  0.08049824  0.99222444  0.11274225     0.80600
O248        O  0.00658028  0.57637062  0.43190004    -0.57700
O249        O  0.00697068  0.53830239  0.38339042    -0.50700
C250        C  0.00677368  0.56623415  0.39385140     0.72700
O251        O  0.00814638  0.57592316  0.07467819    -0.72200
O252        O  0.00648517  0.53768735  0.12327230    -0.52800
C253        C  0.00742404  0.56568134  0.11276817     0.78700
O254        O  0.09120884  0.99164142  0.43211827    -0.57400
O255        O  0.05313629  0.99203428  0.38362059    -0.50500
C256        C  0.08107265  0.99183140  0.39407995     0.75300
Zr257      Zr  0.06980221  0.99165419  0.00339162     2.54700
O258        O  0.10845782  0.53159607  0.00341659    -0.77900
O259        O  0.10587394  0.95137317  0.50325804    -0.91700
Zr260      Zr  0.00767867  0.55498994  0.00324922     2.64700
O261        O  0.04918744  0.59197331  0.00380017    -0.96300
O262        O  0.46925789  0.59348844  0.50388561    -0.78400
O263        O  0.03898675  0.52366868  0.04413603    -0.81700
O264        O  0.03918161  0.52402426  0.46266501    -2.16400
O265        O  0.00601058  0.90698820  0.43184744    -0.65100
O266        O  0.00569888  0.94519618  0.38325831    -0.49700
C267        C  0.00584899  0.91719945  0.39374583     0.73600
O268        O  0.42102688  0.98976155  0.07422760    -0.58000
O269        O  0.45900652  0.99044616  0.12290202    -0.50000
C270        C  0.43106589  0.98989687  0.11234366     0.75400
O271        O  0.42156302  0.99250385  0.43195164    -0.69400
O272        O  0.45978527  0.99218110  0.38337524    -0.48100
C273        C  0.43179760  0.99247547  0.39384678     0.76800
O274        O  0.00342599  0.90643554  0.07451334    -0.64800
O275        O  0.00480168  0.94452564  0.12301140    -0.52000
C276        C  0.00384731  0.91656809  0.11257070     0.75200
Zr277      Zr  0.00473803  0.92789239  0.00327590     2.77500
O278        O  0.46397821  0.89008436  0.00395786    -0.95500
O279        O  0.04334867  0.88987595  0.00406739    -0.76300
Zr280      Zr  0.44260789  0.99137286  0.00299207     2.70100
O281        O  0.40290864  0.95249467  0.00072134    -0.77600
O282        O  0.40691904  0.53211737  0.00537698    -0.96700
Zr283      Zr  0.00588416  0.99126879  0.08348667     2.21500
Zr284      Zr  0.00635983  0.99175942  0.42302146     2.11100
O285        O  0.47331043  0.95915406  0.46271068    -2.45400
O286        O  0.47300209  0.95907009  0.04385198    -0.77400
O287        O  0.03784204  0.95956763  0.46253456    -0.69600
O288        O  0.47452239  0.52357153  0.04376729    -2.30500
O289        O  0.03760086  0.95919592  0.04395225    -2.26700
O290        O  0.47476590  0.52380131  0.46253491    -0.71300
H291        H  0.05175661  0.53639364  0.44424503     0.80700
H292        H  0.46240040  0.53576986  0.06210779     0.81800
H293        H  0.46076410  0.94688822  0.44432781     0.84000
H294        H  0.04953273  0.94688557  0.06237942     0.81600
H295        H  0.45065647  0.58284756  0.00798127     0.44600
H296        H  0.41364521  0.54612373  0.48393894     0.43600
H297        H  0.41016326  0.93631391  0.01944382     0.43300
H298        H  0.45404154  0.89272968  0.47485514     0.41200
H299        H  0.06060685  0.89893026  0.48948612     0.44300
H300        H  0.10161868  0.93946022  0.02866754     0.39100
H301        H  0.10037069  0.54724481  0.02227961     0.45200
H302        H  0.05918672  0.58965014  0.47529534     0.41700
H303        H  0.47402985  0.87082271  0.99829994     0.46600
H304        H  0.12587791  0.96201640  0.00975535     0.45300
H305        H  0.03967733  0.61134402  0.99699008     0.45400
H306        H  0.38708169  0.52214451  0.99998551     0.45800
C307        C  0.00511631  0.87939152  0.32946743    -0.11100
C308        C  0.00559205  0.89567704  0.35993175    -0.12600
C309        C  0.00351894  0.89506771  0.14648090    -0.11100
C310        C  0.00364131  0.87907514  0.17731455    -0.12600
C311        C  0.00702953  0.60372352  0.32918135    -0.11100
C312        C  0.00689802  0.58772006  0.35998212    -0.12600
C313        C  0.00709264  0.60332750  0.17709633    -0.11100
C314        C  0.00739058  0.58714484  0.14657455    -0.12600
C315        C  0.00580948  0.69827285  0.25256286    -0.16300
C316        C  0.00517853  0.72542666  0.25287326     0.07800
C317        C  0.00445563  0.75722681  0.25341225     0.09600
C318        C  0.00404724  0.78439265  0.25377856    -0.17100
C319        C  0.39425615  0.99172953  0.32931017    -0.11100
C320        C  0.41036033  0.99236082  0.35995094    -0.12600
C321        C  0.39348119  0.98981330  0.17705725    -0.11100
C322        C  0.40947467  0.98968001  0.14619363    -0.12600
C323        C  0.10254846  0.99188832  0.36019744    -0.11100
C324        C  0.11847886  0.99195806  0.32932005    -0.12600
C325        C  0.10189356  0.99251789  0.14663517    -0.11100
C326        C  0.11804485  0.99263932  0.17719584    -0.12600
C327        C  0.21295072  0.99068179  0.25265744    -0.16300
C328        C  0.24010071  0.99017342  0.25320938     0.07800
C329        C  0.27189947  0.98977222  0.25399727     0.09600
C330        C  0.29906926  0.98966157  0.25433676    -0.17100
C331        C  0.18097121  0.99137088  0.75282652     0.82400
N332        N  0.16563817  0.99183419  0.71574079    -0.75900
C333        C  0.13501760  0.49195671  0.71601880     0.84900
N334        N  0.11987212  0.49186093  0.75329975    -0.75800
C335        C  0.13518058  0.49154179  0.79029795     0.85000
N336        N  0.16573129  0.99113454  0.79010318    -0.77500
C337        C  0.33169839  0.98993486  0.75380800     0.82400
N338        N  0.34717803  0.99068798  0.79077370    -0.75900
C339        C  0.37778405  0.99090202  0.79029198     0.84900
N340        N  0.39281691  0.99041291  0.75296825    -0.75800
C341        C  0.37739037  0.98966346  0.71608412     0.85000
N342        N  0.34680204  0.98943178  0.71644075    -0.77500
C343        C  0.00599514  0.66620857  0.75267544     0.82400
N344        N  0.00647606  0.65082016  0.71563024    -0.75900
C345        C  0.00681695  0.62022639  0.71598236     0.84900
N346        N  0.00669024  0.60511078  0.75326061    -0.75800
C347        C  0.00624400  0.62042552  0.79024126     0.85000
N348        N  0.00588911  0.65100970  0.79000108    -0.77500
C349        C  0.00388411  0.81699616  0.75385893     0.82400
N350        N  0.50350462  0.83233418  0.71657821    -0.75900
C351        C  0.50344784  0.86291497  0.71653913     0.84900
N352        N  0.50410830  0.87815388  0.75358258    -0.75800
C353        C  0.50479111  0.86293467  0.79073771     0.85000
N354        N  0.50483358  0.83233138  0.79090438    -0.77500
O355        O  0.09104969  0.99318426  0.57457170    -0.73100
O356        O  0.05282271  0.99204094  0.62319919    -0.52000
C357        C  0.08083291  0.99279773  0.61268891     0.80600
O358        O  0.00685937  0.57633316  0.93194388    -0.57700
O359        O  0.00707062  0.53832680  0.88333689    -0.50700
C360        C  0.00687834  0.56626467  0.89385472     0.72700
O361        O  0.00784815  0.57628995  0.57463455    -0.72200
O362        O  0.00719469  0.53802533  0.62319070    -0.52800
C363        C  0.00763053  0.56602890  0.61271945     0.78700
O364        O  0.09142884  0.99139665  0.93227208    -0.57400
O365        O  0.05337156  0.99133365  0.88373214    -0.50500
C366        C  0.08131580  0.99127549  0.89420968     0.75300
Zr367      Zr  0.06977774  0.99183061  0.50331920     2.54700
O368        O  0.10860874  0.53154744  0.50169781    -0.77900
O369        O  0.10641864  0.95167155  0.00317387    -0.91700
Zr370      Zr  0.00755856  0.55519585  0.50329419     2.64700
O371        O  0.04855702  0.59279613  0.50242063    -0.96300
O372        O  0.47002532  0.59389768  0.00306804    -0.78400
O373        O  0.03910849  0.52394051  0.54402061    -0.81700
O374        O  0.03935946  0.52392697  0.96256546    -2.16400
O375        O  0.00586211  0.90689357  0.93193411    -0.65100
O376        O  0.00601611  0.94510694  0.88332150    -0.49700
C377        C  0.00598051  0.91713069  0.89384993     0.73600
O378        O  0.42124358  0.98996315  0.57437630    -0.58000
O379        O  0.45930708  0.99097405  0.62292277    -0.50000
C380        C  0.43135401  0.99024390  0.61242108     0.75400
O381        O  0.42173553  0.99226903  0.93153959    -0.69400
O382        O  0.46003312  0.99147084  0.88309016    -0.48100
C383        C  0.43203875  0.99195971  0.89348508     0.76800
O384        O  0.00364461  0.90672028  0.57471788    -0.64800
O385        O  0.00460900  0.94479413  0.62327713    -0.52000
C386        C  0.00376975  0.91684373  0.61279413     0.75200
Zr387      Zr  0.00487329  0.92795724  0.50328197     2.77500
O388        O  0.46411537  0.89004823  0.50243237    -0.95500
O389        O  0.04307129  0.88949909  0.50432484    -0.76300
Zr390      Zr  0.44272611  0.99140665  0.50324972     2.70100
O391        O  0.40309123  0.95246149  0.50177515    -0.77600
O392        O  0.40664337  0.53161842  0.50592321    -0.96700
Zr393      Zr  0.00617740  0.99146365  0.58362235     2.21500
Zr394      Zr  0.00649626  0.99160929  0.92296937     2.11100
O395        O  0.47330846  0.95917305  0.96251311    -2.45400
O396        O  0.47327283  0.95911993  0.54398832    -0.77400
O397        O  0.03785022  0.95941533  0.96263757    -0.69600
O398        O  0.47467249  0.52352874  0.54391921    -2.30500
O399        O  0.03777725  0.95928814  0.54399664    -2.26700
O400        O  0.47485448  0.52374217  0.96230800    -0.71300
H401        H  0.05195761  0.53628615  0.94416437     0.80700
H402        H  0.46252601  0.53567238  0.56228970     0.81800
H403        H  0.46081416  0.94687833  0.94409787     0.84000
H404        H  0.04976718  0.94701863  0.56240585     0.81600
H405        H  0.45371202  0.58576947  0.52396058     0.44600
H406        H  0.41121569  0.54411605  0.97952756     0.43600
H407        H  0.41259512  0.93442950  0.51386812     0.43300
H408        H  0.45225065  0.89404836  0.97805977     0.41200
H409        H  0.06087847  0.89965491  0.98964353     0.44300
H410        H  0.10209925  0.94029111  0.53003069     0.39100
H411        H  0.09936461  0.54871724  0.51636979     0.45200
H412        H  0.06136347  0.58734241  0.97848077     0.41700
H413        H  0.47441610  0.87058661  0.49987524     0.46600
H414        H  0.12568982  0.96171989  0.50734234     0.45300
H415        H  0.03842635  0.61226758  0.49877673     0.45400
H416        H  0.38778346  0.52251966  0.49443243     0.45800
C417        C  0.00528361  0.87954292  0.82950485    -0.11100
C418        C  0.00579345  0.89568321  0.86006043    -0.12600
C419        C  0.00313136  0.89532296  0.64666949    -0.11100
C420        C  0.00298983  0.87928621  0.67745591    -0.12600
C421        C  0.00639366  0.60398952  0.82934325    -0.11100
C422        C  0.00664439  0.58785333  0.86004032    -0.12600
C423        C  0.00733187  0.60357645  0.67718575    -0.11100
C424        C  0.00763499  0.58745800  0.64658810    -0.12600
C425        C  0.00557248  0.69855102  0.75244930    -0.16300
C426        C  0.00512707  0.72570860  0.75276743     0.07800
C427        C  0.00455789  0.75750213  0.75346511     0.09600
C428        C  0.00415167  0.78465736  0.75391665    -0.17100
C429        C  0.39452294  0.99162974  0.82900166    -0.11100
C430        C  0.41065597  0.99196762  0.85958079    -0.12600
C431        C  0.39371409  0.98957039  0.67695032    -0.11100
C432        C  0.40979316  0.98978697  0.64621706    -0.12600
C433        C  0.10281725  0.99117451  0.86030872    -0.11100
C434        C  0.11875591  0.99119144  0.82941093    -0.12600
C435        C  0.10231536  0.99294545  0.64653918    -0.11100
C436        C  0.11842952  0.99264272  0.67715955    -0.12600
C437        C  0.21329840  0.99115864  0.75273275    -0.16300
C438        C  0.24044885  0.99089283  0.75318031     0.07800
C439        C  0.27222735  0.99045911  0.75384967     0.09600
C440        C  0.29937467  0.99010585  0.75413295    -0.17100
C441        C  0.68062396  0.49132552  0.25271845     0.82400
N442        N  0.66526959  0.49187876  0.21565169    -0.75900
C443        C  0.63473828  0.99242511  0.21592641     0.84900
N444        N  0.61958271  0.99255539  0.25317180    -0.75800
C445        C  0.63486160  0.99203958  0.29016367     0.85000
N446        N  0.66541063  0.49143860  0.29000363    -0.77500
C447        C  0.83142855  0.48973437  0.25409513     0.82400
N448        N  0.84690948  0.49031560  0.29107370    -0.75900
C449        C  0.87752804  0.49082787  0.29060335     0.84900
N450        N  0.89257443  0.49070440  0.25324710    -0.75800
C451        C  0.87715695  0.49010948  0.21632580     0.85000
N452        N  0.84655560  0.48967074  0.21671394    -0.77500
C453        C  0.50645237  0.16594658  0.25275173     0.82400
N454        N  0.50654485  0.15058516  0.21566661    -0.75900
C455        C  0.50687832  0.11998656  0.21595000     0.84900
N456        N  0.50705433  0.10483986  0.25318428    -0.75800
C457        C  0.50696360  0.12013884  0.29017773     0.85000
N458        N  0.50667286  0.15071447  0.29002352    -0.77500
C459        C  0.50406299  0.31678143  0.25375399     0.82400
N460        N  0.00378225  0.33198514  0.21650700    -0.75900
C461        C  0.00396084  0.36257490  0.21637883     0.84900
N462        N  0.00441164  0.37785335  0.25340583    -0.75800
C463        C  0.00462064  0.36268633  0.29063738     0.85000
N464        N  0.00438377  0.33206375  0.29087399    -0.77500
O465        O  0.59085278  0.49210913  0.07466989    -0.73100
O466        O  0.55248877  0.49187464  0.12307379    -0.52000
C467        C  0.58051690  0.49215848  0.11269947     0.80600
O468        O  0.50656248  0.07633633  0.43189713    -0.57700
O469        O  0.50690311  0.03827236  0.38337401    -0.50700
C470        C  0.50671661  0.06620129  0.39384811     0.72700
O471        O  0.50813981  0.07596803  0.07470775    -0.72200
O472        O  0.50644145  0.03773111  0.12330050    -0.52800
C473        C  0.50740140  0.06572469  0.11279765     0.78700
O474        O  0.59122351  0.49161956  0.43212890    -0.57400
O475        O  0.55315719  0.49218544  0.38362577    -0.50500
C476        C  0.58109259  0.49192933  0.39408911     0.75300
Zr477      Zr  0.56981666  0.49159750  0.00336257     2.54700
O478        O  0.60851656  0.03159169  0.00329160    -0.77900
O479        O  0.60572798  0.45114464  0.50321671    -0.91700
Zr480      Zr  0.50770703  0.05504296  0.00326764     2.64700
O481        O  0.54938178  0.09184103  0.00385407    -0.96300
O482        O  0.96929616  0.09359616  0.50415327    -0.78400
O483        O  0.53899530  0.02370868  0.04416450    -0.81700
O484        O  0.53919201  0.02401667  0.46264021    -2.16400
O485        O  0.50615505  0.40691945  0.43191473    -0.65100
O486        O  0.50576708  0.44513534  0.38332946    -0.49700
C487        C  0.50597911  0.41714049  0.39381919     0.73600
O488        O  0.92098243  0.48971214  0.07421651    -0.58000
O489        O  0.95898215  0.49051375  0.12285898    -0.50000
C490        C  0.93103400  0.48992923  0.11232809     0.75400
O491        O  0.92157558  0.49257670  0.43199838    -0.69400
O492        O  0.95978689  0.49227611  0.38340539    -0.48100
C493        C  0.93180393  0.49256810  0.39389148     0.76800
O494        O  0.50341648  0.40638168  0.07447860    -0.64800
O495        O  0.50475897  0.44448502  0.12295232    -0.52000
C496        C  0.50381891  0.41652633  0.11253025     0.75200
Zr497      Zr  0.50470583  0.42785100  0.00324634     2.77500
O498        O  0.96380298  0.39016254  0.00383638    -0.95500
O499        O  0.54331534  0.38983921  0.00413817    -0.76300
Zr500      Zr  0.94259945  0.49131458  0.00299713     2.70100
O501        O  0.90275495  0.45258396  0.00073773    -0.77600
O502        O  0.90683029  0.03200449  0.00545449    -0.96700
Zr503      Zr  0.50590231  0.49122280  0.08343641     2.21500
Zr504      Zr  0.50636336  0.49173098  0.42300801     2.11100
O505        O  0.97328869  0.45917878  0.46272259    -2.45400
O506        O  0.97298174  0.45899954  0.04385740    -0.77400
O507        O  0.53783672  0.45951931  0.46250506    -0.69600
O508        O  0.97451817  0.02357178  0.04374396    -2.30500
O509        O  0.53760133  0.45913636  0.04389905    -2.26700
O510        O  0.97476928  0.02389536  0.46249906    -0.71300
H511        H  0.55175795  0.03638791  0.44421124     0.80700
H512        H  0.96237644  0.03575973  0.06207093     0.81800
H513        H  0.96074109  0.44692289  0.44432896     0.84000
H514        H  0.54953185  0.44681758  0.06231706     0.81600
H515        H  0.95155629  0.08391768  0.01363140     0.44600
H516        H  0.91233737  0.04520801  0.48217253     0.43600
H517        H  0.91076665  0.43561705  0.01730920     0.43300
H518        H  0.95399404  0.39279296  0.47470134     0.41200
H519        H  0.56050234  0.39875722  0.48878043     0.44300
H520        H  0.60211050  0.43981445  0.02910927     0.39100
H521        H  0.60090192  0.04685099  0.02316663     0.45200
H522        H  0.55943700  0.08934531  0.47545301     0.41700
H523        H  0.97379097  0.37086363  0.99819771     0.46600
H524        H  0.62605760  0.46219494  0.00906268     0.45300
H525        H  0.53979177  0.11142497  0.99869664     0.45400
H526        H  0.88739663  0.02245502  0.99682925     0.45800
C527        C  0.50526360  0.37938160  0.32950888    -0.11100
C528        C  0.50575565  0.39563352  0.36000130    -0.12600
C529        C  0.50349085  0.39504955  0.14646794    -0.11100
C530        C  0.50362722  0.37910063  0.17734508    -0.12600
C531        C  0.50695173  0.10371345  0.32921868    -0.11100
C532        C  0.50681532  0.08769173  0.35999596    -0.12600
C533        C  0.50715036  0.10335388  0.17714539    -0.11100
C534        C  0.50740225  0.08718347  0.14660978    -0.12600
C535        C  0.50590938  0.19828930  0.25263515    -0.16300
C536        C  0.50531780  0.22544658  0.25291996     0.07800
C537        C  0.50462549  0.25725062  0.25342534     0.09600
C538        C  0.50421343  0.28441738  0.25377851    -0.17100
C539        C  0.89425970  0.49176415  0.32937017    -0.11100
C540        C  0.91036263  0.49244269  0.36000830    -0.12600
C541        C  0.89347977  0.48991373  0.17709913    -0.11100
C542        C  0.90945537  0.48976492  0.14620915    -0.12600
C543        C  0.60257244  0.49205227  0.36020814    -0.11100
C544        C  0.61849784  0.49213476  0.32932435    -0.12600
C545        C  0.60190164  0.49251181  0.14660691    -0.11100
C546        C  0.61803472  0.49269758  0.17718828    -0.12600
C547        C  0.71294290  0.49054325  0.25262403    -0.16300
C548        C  0.74009244  0.48999913  0.25320230     0.07800
C549        C  0.77189283  0.48959324  0.25404607     0.09600
C550        C  0.79906463  0.48950289  0.25441795    -0.17100
C551        C  0.68097178  0.49130364  0.75279216     0.82400
N552        N  0.66564400  0.49184482  0.71570526    -0.75900
C553        C  0.63498499  0.99201571  0.71599284     0.84900
N554        N  0.61983512  0.99185403  0.75326987    -0.75800
C555        C  0.63513866  0.99146777  0.79026800     0.85000
N556        N  0.66573080  0.49110867  0.79006544    -0.77500
C557        C  0.83170211  0.48993011  0.75385878     0.82400
N558        N  0.84716287  0.49069392  0.79083917    -0.75900
C559        C  0.87776971  0.49096420  0.79038129     0.84900
N560        N  0.89282259  0.49050994  0.75307385    -0.75800
C561        C  0.87741588  0.48975171  0.71617623     0.85000
N562        N  0.84682632  0.48946873  0.71650494    -0.77500
C563        C  0.50611765  0.16624115  0.75267214     0.82400
N564        N  0.50657454  0.15086994  0.71560668    -0.75900
C565        C  0.50687436  0.12027121  0.71593067     0.84900
N566        N  0.50672843  0.10513941  0.75319584    -0.75800
C567        C  0.50630951  0.12043623  0.79019100     0.85000
N568        N  0.50599582  0.15102101  0.78998021    -0.77500
C569        C  0.50388786  0.31702569  0.75386184     0.82400
N570        N  0.00328811  0.33226836  0.71657845    -0.75900
C571        C  0.00335886  0.36285414  0.71648886     0.84900
N572        N  0.00412709  0.37812241  0.75350290    -0.75800
C573        C  0.00478176  0.36293230  0.79067932     0.85000
N574        N  0.00470092  0.33232868  0.79090206    -0.77500
O575        O  0.59103911  0.49311014  0.57456845    -0.73100
O576        O  0.55282005  0.49215119  0.62321220    -0.52000
C577        C  0.58082716  0.49284129  0.61268729     0.80600
O578        O  0.50686123  0.07636251  0.93192308    -0.57700
O579        O  0.50709232  0.03834885  0.88332248    -0.50700
C580        C  0.50689715  0.06628723  0.89383155     0.72700
O581        O  0.50785215  0.07625833  0.57463722    -0.72200
O582        O  0.50720967  0.03800151  0.62320105    -0.52800
C583        C  0.50764264  0.06600558  0.61272445     0.78700
O584        O  0.59147938  0.49130353  0.93226644    -0.57400
O585        O  0.55341043  0.49127500  0.88374660    -0.50500
C586        C  0.58135742  0.49120404  0.89420916     0.75300
Zr587      Zr  0.56977375  0.49173878  0.50332146     2.54700
O588        O  0.60885531  0.03134530  0.50183650    -0.77900
O589        O  0.60654545  0.45171428  0.00321246    -0.91700
Zr590      Zr  0.50758037  0.05518192  0.50329000     2.64700
O591        O  0.54869867  0.09264963  0.50245231    -0.96300
O592        O  0.97021922  0.09411394  0.00306456    -0.78400
O593        O  0.53911866  0.02393544  0.54402102    -0.81700
O594        O  0.53935515  0.02395913  0.96257951    -2.16400
O595        O  0.50577266  0.40688682  0.93187536    -0.65100
O596        O  0.50603366  0.44511535  0.88328157    -0.49700
C597        C  0.50593070  0.41713948  0.89379783     0.73600
O598        O  0.92126147  0.48992688  0.57446134    -0.58000
O599        O  0.95933481  0.49104191  0.62299418    -0.50000
C600        C  0.93138036  0.49026554  0.61250507     0.75400
O601        O  0.92173808  0.49223132  0.93156952    -0.69400
O602        O  0.96003460  0.49145068  0.88311442    -0.48100
C603        C  0.93204123  0.49194558  0.89352034     0.76800
O604        O  0.50389049  0.40668026  0.57472324    -0.64800
O605        O  0.50463257  0.44476487  0.62327234    -0.52000
C606        C  0.50393241  0.41681552  0.61278617     0.75200
Zr607      Zr  0.50492273  0.42790599  0.50331524     2.77500
O608        O  0.96390352  0.39022301  0.50241896    -0.95500
O609        O  0.54318912  0.38951056  0.50433019    -0.76300
Zr610      Zr  0.94271435  0.49141187  0.50330086     2.70100
O611        O  0.90308326  0.45246889  0.50157974    -0.77600
O612        O  0.90644803  0.03158255  0.50579075    -0.96700
Zr613      Zr  0.50617403  0.49143769  0.58364969     2.21500
Zr614      Zr  0.50652007  0.49157895  0.92296475     2.11100
O615        O  0.97330116  0.45912934  0.96247741    -2.45400
O616        O  0.97324999  0.45912758  0.54405652    -0.77400
O617        O  0.53785248  0.45935268  0.96261672    -0.69600
O618        O  0.97467165  0.02361675  0.54394467    -2.30500
O619        O  0.53778084  0.45924909  0.54405782    -2.26700
O620        O  0.97486246  0.02375257  0.96237280    -0.71300
H621        H  0.55195434  0.03631491  0.94417525     0.80700
H622        H  0.96254294  0.03575595  0.56234748     0.81800
H623        H  0.96080883  0.44684527  0.94404642     0.84000
H624        H  0.54977877  0.44699402  0.56247578     0.81600
H625        H  0.95232105  0.08440249  0.52046111     0.44600
H626        H  0.91264072  0.04531333  0.98145446     0.43600
H627        H  0.91299785  0.43403206  0.51159078     0.43300
H628        H  0.95212121  0.39416627  0.97790971     0.41200
H629        H  0.56136696  0.40016202  0.99184420     0.44300
H630        H  0.60216999  0.44027907  0.53021399     0.39100
H631        H  0.59907107  0.04913871  0.51411612     0.45200
H632        H  0.56088649  0.08792875  0.97767106     0.41700
H633        H  0.97413027  0.37070078  0.50019329     0.46600
H634        H  0.62561543  0.46145337  0.50678892     0.45300
H635        H  0.53864992  0.11213819  0.49853525     0.45400
H636        H  0.88720475  0.02190050  0.49663116     0.45800
C637        C  0.50522386  0.37960419  0.82942020    -0.11100
C638        C  0.50572128  0.39571722  0.85999433    -0.12600
C639        C  0.50333686  0.39530343  0.64663915    -0.11100
C640        C  0.50317249  0.37926367  0.67740571    -0.12600
C641        C  0.50644232  0.10398413  0.82928200    -0.11100
C642        C  0.50667892  0.08786318  0.85999703    -0.12600
C643        C  0.50736687  0.10361979  0.67712866    -0.11100
C644        C  0.50765612  0.08745533  0.64657452    -0.12600
C645        C  0.50569156  0.19858617  0.75249564    -0.16300
C646        C  0.50520871  0.22574286  0.75285893     0.07800
C647        C  0.50458434  0.25753466  0.75355778     0.09600
C648        C  0.50415049  0.28468879  0.75397037    -0.17100
C649        C  0.89449394  0.49167801  0.82909335    -0.11100
C650        C  0.91064955  0.49198996  0.85964186    -0.12600
C651        C  0.89375861  0.48964486  0.67705773    -0.11100
C652        C  0.90983098  0.48983156  0.64631723    -0.12600
C653        C  0.60284638  0.49115047  0.86029229    -0.11100
C654        C  0.61876497  0.49124080  0.82937379    -0.12600
C655        C  0.60231573  0.49305414  0.64652269    -0.11100
C656        C  0.61844054  0.49279100  0.67712969    -0.12600
C657        C  0.71329458  0.49096298  0.75270945    -0.16300
C658        C  0.74044336  0.49065249  0.75318091     0.07800
C659        C  0.77222375  0.49025955  0.75386627     0.09600
C660        C  0.79937458  0.48999310  0.75415811    -0.17100
C661        C  0.68065995  0.99125089  0.25272285     0.82400
N662        N  0.66532856  0.99176288  0.21563200    -0.75900
C663        C  0.63468283  0.49258067  0.21598372     0.84900
N664        N  0.61955099  0.49271514  0.25325184    -0.75800
C665        C  0.63486074  0.49216390  0.29022140     0.85000
N666        N  0.66541706  0.99136502  0.28999016    -0.77500
C667        C  0.83148599  0.98984010  0.25404715     0.82400
N668        N  0.84696739  0.99046833  0.29102382    -0.75900
C669        C  0.87758403  0.99086073  0.29055720     0.84900
N670        N  0.89262972  0.99057891  0.25320858    -0.75800
C671        C  0.87721200  0.98994304  0.21629042     0.85000
N672        N  0.84661219  0.98961660  0.21667070    -0.77500
C673        C  0.50628925  0.66593048  0.25265993     0.82400
N674        N  0.50653416  0.65054079  0.21560038    -0.75900
C675        C  0.50702345  0.61994684  0.21593751     0.84900
N676        N  0.50719801  0.60483656  0.25320776    -0.75800
C677        C  0.50695191  0.62016978  0.29017609     0.85000
N678        N  0.50650853  0.65073660  0.28995764    -0.77500
C679        C  0.50392391  0.81674424  0.25376535     0.82400
N680        N  0.00377370  0.83202800  0.21649306    -0.75900
C681        C  0.00393302  0.86261876  0.21637240     0.84900
N682        N  0.00434364  0.87789266  0.25340186    -0.75800
C683        C  0.00452569  0.86272240  0.29063017     0.85000
N684        N  0.00430525  0.83209912  0.29086140    -0.77500
O685        O  0.59079086  0.99215458  0.07471277    -0.73100
O686        O  0.55245634  0.99193275  0.12316702    -0.52000
C687        C  0.58048020  0.99218455  0.11275385     0.80600
O688        O  0.50656182  0.57642241  0.43200325    -0.57700
O689        O  0.50696266  0.53839489  0.38343134    -0.50700
C690        C  0.50673102  0.56631734  0.39393852     0.72700
O691        O  0.50830680  0.57592614  0.07466013    -0.72200
O692        O  0.50667164  0.53767934  0.12322998    -0.52800
C693        C  0.50763049  0.56567635  0.11274945     0.78700
O694        O  0.59116985  0.99165957  0.43203145    -0.57400
O695        O  0.55306819  0.99191972  0.38356962    -0.50500
C696        C  0.58101519  0.99179256  0.39399764     0.75300
Zr697      Zr  0.56975784  0.99170799  0.00341296     2.54700
O698        O  0.60845529  0.53159929  0.00318928    -0.77900
O699        O  0.60601884  0.95149297  0.50329238    -0.91700
Zr700      Zr  0.50774448  0.55498634  0.00322250     2.64700
O701        O  0.54893956  0.59231654  0.00371193    -0.96300
O702        O  0.96915727  0.59345855  0.50417079    -0.78400
O703        O  0.53906382  0.52364022  0.04405888    -0.81700
O704        O  0.53923748  0.52401050  0.46271193    -2.16400
O705        O  0.50608086  0.90693267  0.43184928    -0.65100
O706        O  0.50565987  0.94513237  0.38326247    -0.49700
C707        C  0.50587826  0.91714370  0.39374980     0.73600
O708        O  0.92104741  0.98961479  0.07421951    -0.58000
O709        O  0.95904266  0.99046629  0.12286640    -0.50000
C710        C  0.93109774  0.98981399  0.11232916     0.75400
O711        O  0.92162444  0.99251651  0.43193674    -0.69400
O712        O  0.95984779  0.99238846  0.38335319    -0.48100
C713        C  0.93185954  0.99259070  0.39383394     0.76800
O714        O  0.50330654  0.90639104  0.07446374    -0.64800
O715        O  0.50483016  0.94446600  0.12297780    -0.52000
C716        C  0.50379750  0.91651004  0.11252370     0.75200
Zr717      Zr  0.50473685  0.92792266  0.00329021     2.77500
O718        O  0.96381993  0.89022449  0.00380651    -0.95500
O719        O  0.54358838  0.89015639  0.00427716    -0.76300
Zr720      Zr  0.94262928  0.99135572  0.00299141     2.70100
O721        O  0.90290124  0.95250955  0.00067878    -0.77600
O722        O  0.90691205  0.53207463  0.00506168    -0.96700
Zr723      Zr  0.50585167  0.99126308  0.08353635     2.21500
Zr724      Zr  0.50630937  0.99166357  0.42303441     2.11100
O725        O  0.97335589  0.95922568  0.46263499    -2.45400
O726        O  0.97302606  0.95905569  0.04384518    -0.77400
O727        O  0.53784500  0.95951229  0.46252706    -0.69600
O728        O  0.97447140  0.52352873  0.04376957    -2.30500
O729        O  0.53757207  0.95923218  0.04397393    -2.26700
O730        O  0.97472521  0.52384902  0.46249662    -0.71300
H731        H  0.55182119  0.53639626  0.44432540     0.80700
H732        H  0.96233077  0.53571489  0.06209956     0.81800
H733        H  0.96081695  0.94697686  0.44422217     0.84000
H734        H  0.54950333  0.94691667  0.06239431     0.81600
H735        H  0.95171554  0.58417910  0.01454330     0.44600
H736        H  0.91281934  0.54554354  0.48234203     0.43600
H737        H  0.91054112  0.93594764  0.01839230     0.43300
H738        H  0.95346762  0.89346374  0.47524198     0.41200
H739        H  0.56047333  0.89884015  0.48831817     0.44300
H740        H  0.60107278  0.93911914  0.02830731     0.39100
H741        H  0.60063771  0.54699310  0.02269315     0.45200
H742        H  0.55978132  0.58900623  0.47603275     0.41700
H743        H  0.97383722  0.87088103  0.99859381     0.46600
H744        H  0.62567058  0.96188546  0.01080121     0.45300
H745        H  0.53930803  0.61154744  0.99647438     0.45400
H746        H  0.88746335  0.52254800  0.99645278     0.45800
C747        C  0.50520758  0.87939323  0.32943070    -0.11100
C748        C  0.50566037  0.89564013  0.35992808    -0.12600
C749        C  0.50346331  0.89499854  0.14642319    -0.11100
C750        C  0.50360224  0.87901860  0.17727035    -0.12600
C751        C  0.50692152  0.60379768  0.32926770    -0.11100
C752        C  0.50679350  0.58782337  0.36009734    -0.12600
C753        C  0.50739754  0.60328494  0.17714587    -0.11100
C754        C  0.50767511  0.58712513  0.14659099    -0.12600
C755        C  0.50561524  0.69826324  0.25250735    -0.16300
C756        C  0.50497508  0.72541503  0.25285577     0.07800
C757        C  0.50430604  0.75721468  0.25345511     0.09600
C758        C  0.50396567  0.78438130  0.25383599    -0.17100
C759        C  0.89431496  0.99180369  0.32931913    -0.11100
C760        C  0.91041988  0.99246810  0.35995259    -0.12600
C761        C  0.89353488  0.98966888  0.17707590    -0.11100
C762        C  0.90951738  0.98954843  0.14619811    -0.12600
C763        C  0.60248615  0.99188608  0.36009055    -0.11100
C764        C  0.61845007  0.99198307  0.32923755    -0.12600
C765        C  0.60190442  0.99245450  0.14661098    -0.11100
C766        C  0.61809733  0.99256941  0.17712812    -0.12600
C767        C  0.71298651  0.99052869  0.25266742    -0.16300
C768        C  0.74014131  0.99004965  0.25323481     0.07800
C769        C  0.77194790  0.98972009  0.25403460     0.09600
C770        C  0.79912193  0.98965728  0.25437288    -0.17100
C771        C  0.68093987  0.99138040  0.75276499     0.82400
N772        N  0.66558906  0.99176248  0.71568943    -0.75900
C773        C  0.63504459  0.49221351  0.71598592     0.84900
N774        N  0.61987776  0.49199930  0.75324850    -0.75800
C775        C  0.63516196  0.49144536  0.79025368     0.85000
N776        N  0.66571400  0.99124221  0.79005382    -0.77500
C777        C  0.83168415  0.98979436  0.75385547     0.82400
N778        N  0.84718189  0.99062174  0.79080724    -0.75900
C779        C  0.87779200  0.99098332  0.79029515     0.84900
N780        N  0.89281005  0.99056447  0.75295522    -0.75800
C781        C  0.87736852  0.98973506  0.71608453     0.85000
N782        N  0.84677656  0.98935707  0.71647336    -0.77500
C783        C  0.50595350  0.66622699  0.75273432     0.82400
N784        N  0.50622984  0.65083893  0.71568231    -0.75900
C785        C  0.50655357  0.62024559  0.71601378     0.84900
N786        N  0.50661732  0.60512704  0.75328356    -0.75800
C787        C  0.50637650  0.62043799  0.79027390     0.85000
N788        N  0.50603884  0.65102521  0.79005617    -0.77500
C789        C  0.50417275  0.81703677  0.75377216     0.82400
N790        N  0.00329639  0.83224693  0.71661733    -0.75900
C791        C  0.00327940  0.86283200  0.71649528     0.84900
N792        N  0.00391008  0.87811449  0.75350537    -0.75800
C793        C  0.00451133  0.86294001  0.79070239     0.85000
N794        N  0.00451133  0.83233798  0.79094996    -0.77500
O795        O  0.59100534  0.99314939  0.57455476    -0.73100
O796        O  0.55277059  0.99197260  0.62316730    -0.52000
C797        C  0.58077992  0.99273457  0.61266719     0.80600
O798        O  0.50709868  0.57629367  0.93189881    -0.57700
O799        O  0.50715304  0.53828126  0.88330115    -0.50700
C800        C  0.50707552  0.56622156  0.89381468     0.72700
O801        O  0.50760252  0.57631384  0.57463416    -0.72200
O802        O  0.50703257  0.53805840  0.62320104    -0.52800
C803        C  0.50736061  0.56606146  0.61272303     0.78700
O804        O  0.59142165  0.99161585  0.93229556    -0.57400
O805        O  0.55336830  0.99140471  0.88373982    -0.50500
C806        C  0.58131520  0.99144898  0.89422498     0.75300
Zr807      Zr  0.56977362  0.99181800  0.50327477     2.54700
O808        O  0.60904814  0.53105383  0.50184252    -0.77900
O809        O  0.60631826  0.95167429  0.00330221    -0.91700
Zr810      Zr  0.50759105  0.55515651  0.50333146     2.64700
O811        O  0.54877187  0.59255241  0.50274897    -0.96300
O812        O  0.97017328  0.59411887  0.00286710    -0.78400
O813        O  0.53913965  0.52390068  0.54405194    -0.81700
O814        O  0.53942935  0.52389002  0.96256401    -2.16400
O815        O  0.50587871  0.90687601  0.93199038    -0.65100
O816        O  0.50609116  0.94508548  0.88336583    -0.49700
C817        C  0.50605354  0.91710767  0.89390433     0.73600
O818        O  0.92125630  0.99000903  0.57436178    -0.58000
O819        O  0.95929957  0.99102492  0.62294428    -0.50000
C820        C  0.93134853  0.99029980  0.61241840     0.75400
O821        O  0.92176446  0.99230804  0.93153157    -0.69400
O822        O  0.96006565  0.99150743  0.88308929    -0.48100
C823        C  0.93207119  0.99201512  0.89347719     0.76800
O824        O  0.50362489  0.90672648  0.57476666    -0.64800
O825        O  0.50458078  0.94482674  0.62328168    -0.52000
C826        C  0.50374692  0.91687746  0.61282874     0.75200
Zr827      Zr  0.50489733  0.92789855  0.50328838     2.77500
O828        O  0.96384211  0.89038478  0.50250805    -0.95500
O829        O  0.54334791  0.88968511  0.50436754    -0.76300
Zr830      Zr  0.94276043  0.99139943  0.50323809     2.70100
O831        O  0.90352548  0.95205692  0.50154294    -0.77600
O832        O  0.90683933  0.53198445  0.50599265    -0.96700
Zr833      Zr  0.50615642  0.99142944  0.58356226     2.21500
Zr834      Zr  0.50647460  0.99163017  0.92295368     2.11100
O835        O  0.97331894  0.95915332  0.96250880    -2.45400
O836        O  0.97329040  0.95915938  0.54404890    -0.77400
O837        O  0.53783392  0.95945610  0.96263631    -0.69600
O838        O  0.97464505  0.52360833  0.54397807    -2.30500
O839        O  0.53778494  0.95926394  0.54396234    -2.26700
O840        O  0.97483640  0.52368763  0.96236115    -0.71300
H841        H  0.55203944  0.53623036  0.94415321     0.80700
H842        H  0.96253184  0.53574855  0.56239970     0.81800
H843        H  0.96081868  0.94686941  0.94408768     0.84000
H844        H  0.54978380  0.94700351  0.56237276     0.81600
H845        H  0.95249803  0.58451375  0.52134850     0.44600
H846        H  0.91279009  0.54528315  0.98098265     0.43600
H847        H  0.91257093  0.93466354  0.51599499     0.43300
H848        H  0.95232800  0.89404631  0.97765446     0.41200
H849        H  0.56133725  0.90030317  0.99089583     0.44300
H850        H  0.60275677  0.94084607  0.53052464     0.39100
H851        H  0.59925354  0.54899245  0.51367507     0.45200
H852        H  0.56131206  0.58758523  0.97862062     0.41700
H853        H  0.97398031  0.87088967  0.49923669     0.46600
H854        H  0.62586408  0.96197335  0.50637591     0.45300
H855        H  0.53879912  0.61202323  0.49829233     0.45400
H856        H  0.88748108  0.52250069  0.49691787     0.45800
C857        C  0.50551887  0.87949813  0.82957767    -0.11100
C858        C  0.50595054  0.89564801  0.86012638    -0.12600
C859        C  0.50313344  0.89539795  0.64673298    -0.11100
C860        C  0.50305625  0.87939735  0.67754361    -0.12600
C861        C  0.50665200  0.60398514  0.82935335    -0.11100
C862        C  0.50691364  0.58781627  0.86001263    -0.12600
C863        C  0.50693066  0.60360350  0.67720113    -0.11100
C864        C  0.50723636  0.58749509  0.64658982    -0.12600
C865        C  0.50555980  0.69857290  0.75249718    -0.16300
C866        C  0.50517135  0.72573485  0.75270678     0.07800
C867        C  0.50470627  0.75753596  0.75328802     0.09600
C868        C  0.50438945  0.78469555  0.75373761    -0.17100
C869        C  0.89455138  0.99174183  0.82899151    -0.11100
C870        C  0.91069228  0.99206576  0.85956515    -0.12600
C871        C  0.89368144  0.98966183  0.67693221    -0.11100
C872        C  0.90976741  0.98986630  0.64620020    -0.12600
C873        C  0.60282317  0.99139639  0.86031917    -0.11100
C874        C  0.61875211  0.99139474  0.82940626    -0.12600
C875        C  0.60225145  0.99285229  0.64652477    -0.11100
C876        C  0.61836515  0.99254255  0.67714355    -0.12600
C877        C  0.71327104  0.99111541  0.75265355    -0.16300
C878        C  0.74042195  0.99077602  0.75313594     0.07800
C879        C  0.77220202  0.99025838  0.75387753     0.09600
C880        C  0.79935202  0.98988713  0.75420024    -0.17100
loop_ 
_geom_bond_atom_site_label_1 
_geom_bond_atom_site_label_2 
_geom_bond_distance 
_geom_bond_site_symmetry_2 
_ccdc_geom_bond_type 
C1            N2   1.359       .  A
C1            N6   1.358       .  A
C1          C107   1.435       .  S
N2          C223   1.358       .  A
C3            N4   1.355       .  A
C3          N222   1.358       .  A
C3          C326   1.435       .  S
N4            C5   1.355       .  A
C5          N226   1.356       .  A
C5          C324   1.433       .  S
N6          C225   1.356       .  A
C7            N8   1.359       .  A
C7           N12   1.358       .  A
C7          C110   1.435       .  S
N8            C9   1.358       .  A
C9           N10   1.356       .  A
C9           C99   1.436       .  S
N10          C11   1.356       .  A
C11          N12   1.357       .  A
C11         C101   1.436       .  S
C13          N14   1.359       .  A
C13          N18   1.358       .  A
C13          C95   1.435       .  S
N14          C15   1.357       .  A
C15          N16   1.355       .  A
C15          C93   1.435       .  S
N16          C17   1.355       .  A
C17          N18   1.356       .  A
C17          C91   1.433       .  S
C19         N460   1.358       .  A
C19         N464   1.359       .  A
C19          C98   1.435       .  S
N20          C21   1.357       .  A
N20         C459   1.358       .  A
C21          N22   1.355       .  A
C21         C530   1.434       .  S
N22          C23   1.355       .  A
C23          N24   1.358       .  A
C23         C527   1.436       .  S
N24         C459   1.359       .  A
O25         Zr37   2.444       .  S
O25          C27   1.287       .  A
O26         Zr63   2.421       .  S
O26          C27   1.285       .  A
C27         C105   1.434       .  S
O28        Zr150   2.446       .  S
O28          C30   1.287       .  A
O29        Zr284   2.415   1_545  S
O29          C30   1.283       .  A
C30          C92   1.432       .  S
O31         Zr40   2.446       .  S
O31          C33   1.287       .  A
O32        Zr283   2.417   1_545  S
O32          C33   1.284       .  A
C33          C94   1.434       .  S
O34        Zr147   2.444       .  S
O34          C36   1.287       .  A
O35         Zr64   2.417       .  S
O35          C36   1.284       .  A
C36         C103   1.432       .  S
Zr37        O144   2.444   1_554  S
Zr37         O69   2.374       .  S
Zr37        O263   2.374       .  S
Zr37        O374   2.374   1_554  S
Zr37        O177   2.374   1_554  S
Zr37        O258   2.435       .  S
Zr37        O149   2.435       .  S
O38        Zr257   2.435   1_545  S
O38          H81   0.990       .  S
O39        Zr147   2.435       .  S
O39         H190   0.990       .  S
O39         H194   0.990       .  S
Zr40        O138   2.445   1_554  S
Zr40         O43   2.373       .  S
Zr40        O154   2.372   1_554  S
Zr40        O508   2.373   1_455  S
Zr40        O620   2.376   1_454  S
Zr40         O41   2.434       .  S
Zr40        O592   2.434   1_455  S
O41          H85   0.990   1_554  S
O41         H192   0.990   1_554  S
O42        Zr590   2.435       .  S
O42         H185   0.990       .  S
O43        Zr257   2.375   1_545  S
O43        Zr283   2.378   1_545  S
O44        Zr367   2.374   1_545  S
O44        Zr150   2.373       .  S
O44        Zr284   2.382   1_545  S
O44          H71   0.966       .  S
O45        Zr167   2.448       .  S
O45          C47   1.287       .  A
O46         Zr64   2.421       .  S
O46          C47   1.284       .  A
C47          C88   1.436       .  S
O48         Zr60   2.447       .  S
O48          C50   1.287       .  A
O49        Zr503   2.418       .  S
O49          C50   1.284       .  A
C50         C102   1.435       .  S
O51        Zr170   2.447       .  S
O51          C53   1.287       .  A
O52        Zr504   2.419       .  S
O52          C53   1.284       .  A
C53         C100   1.436       .  S
O54         Zr57   2.445       .  S
O54          C56   1.287       .  A
O55         Zr63   2.418       .  S
O55          C56   1.284       .  A
C56          C89   1.434       .  S
Zr57        O155   2.446   1_554  S
Zr57         O69   2.372       .  S
Zr57        O615   2.373   1_454  S
Zr57        O506   2.374   1_455  S
Zr57        O177   2.375   1_554  S
Zr57         O59   2.434       .  S
Zr57        O498   2.435   1_455  S
O58        Zr497   2.435       .  S
O58          H83   0.990   1_554  S
O58         H188   0.990   1_554  S
O59         H189   0.990   1_554  S
Zr60        O161   2.447   1_554  S
Zr60         O66   2.375       .  S
Zr60        O175   2.374   1_554  S
Zr60        O400   2.374   1_554  S
Zr60        O288   2.371       .  S
Zr60         O61   2.434       .  S
Zr60        O282   2.434       .  S
O61          H77   0.990       .  S
O62        Zr280   2.434   1_545  S
O62          H86   0.990   1_554  S
O62         H186   0.990   1_554  S
Zr63        O252   2.418       .  S
Zr63        O489   2.419   1_455  S
Zr63         O69   2.381       .  S
Zr63        O263   2.378       .  S
Zr63        O506   2.378   1_455  S
Zr63        O728   2.382   1_455  S
Zr64        O249   2.415       .  S
Zr64        O492   2.419   1_455  S
Zr64         O67   2.378       .  S
Zr64        O264   2.381       .  S
Zr64        O505   2.381   1_455  S
Zr64        O730   2.378   1_455  S
O65        Zr607   2.373       .  S
O65        Zr170   2.372       .  S
O65        Zr504   2.381       .  S
O65          H73   0.966       .  S
O66        Zr497   2.374       .  S
O66        Zr503   2.378       .  S
O67        Zr147   2.375       .  S
O67        Zr167   2.375       .  S
O68        Zr480   2.374       .  S
O68        Zr280   2.372   1_545  S
O68        Zr723   2.382   1_545  S
O68          H72   0.966       .  S
O69          H74   0.966       .  S
O70        Zr590   2.375       .  S
O70        Zr390   2.372   1_545  S
O70        Zr724   2.378   1_545  S
H75         O152   0.990       .  S
H76         O172   0.990       .  S
H78         O168   0.990       .  S
H79         O169   0.990       .  S
H80         O149   0.990       .  S
H82         O151   0.990       .  S
H84         O149   0.990       .  S
C87         C463   1.436       .  S
C87          C88   1.206       .  T
C89          C90   1.205       .  T
C90         C461   1.434       .  S
C91          C92   1.204       .  T
C93          C94   1.205       .  T
C95          C96   1.205       .  T
C96          C97   1.411       .  S
C97          C98   1.205       .  T
C99         C100   1.206       .  T
C101        C102   1.206       .  T
C103        C104   1.204       .  T
C104        C225   1.433       .  S
C105        C106   1.205       .  T
C106        C223   1.435       .  S
C107        C108   1.205       .  T
C108        C109   1.412       .  S
C109        C110   1.205       .  T
C111        N112   1.359       .  A
C111        N116   1.358       .  A
C111        C217   1.434       .  S
N112        C333   1.358       .  A
C113        N332   1.358       .  A
C113        N114   1.356       .  A
C113        C436   1.436       .  S
N114        C115   1.356       .  A
C115        N336   1.356       .  A
C115        C434   1.434       .  S
N116        C335   1.356       .  A
C117        N118   1.359       .  A
C117        N122   1.358       .  A
C117        C220   1.434       .  S
N118        C119   1.357       .  A
C119        N120   1.355       .  A
C119        C209   1.434       .  S
N120        C121   1.355       .  A
C121        N122   1.356       .  A
C121        C211   1.433       .  S
C123        N124   1.359       .  A
C123        N128   1.358       .  A
C123        C205   1.435       .  S
N124        C125   1.357       .  A
C125        N126   1.355       .  A
C125        C203   1.435       .  S
N126        C127   1.355       .  A
C127        N128   1.357       .  A
C127        C201   1.434       .  S
C129        N570   1.358       .  A
C129        N574   1.359       .  A
C129        C208   1.435       .  S
N130        C569   1.358       .  A
N130        C131   1.356       .  A
C131        N132   1.355       .  A
C131        C640   1.433       .  S
N132        C133   1.355       .  A
C133        N134   1.357       .  A
C133        C637   1.433       .  S
N134        C569   1.359       .  A
O135       Zr147   2.448       .  S
O135        C137   1.287       .  A
O136       Zr173   2.421       .  S
O136        C137   1.284       .  A
C137        C215   1.436       .  S
O138        C140   1.287       .  A
O139       Zr394   2.418   1_545  S
O139        C140   1.284       .  A
C140        C202   1.434       .  S
O141       Zr150   2.447       .  S
O141        C143   1.287       .  A
O142       Zr393   2.419   1_545  S
O142        C143   1.284       .  A
C143        C204   1.435       .  S
O144        C146   1.287       .  A
O145       Zr174   2.419       .  S
O145        C146   1.284       .  A
C146        C213   1.433       .  S
Zr147       O373   2.375       .  S
Zr147       O264   2.373       .  S
Zr147       O179   2.373       .  S
Zr147       O368   2.434       .  S
O148       Zr367   2.434   1_545  S
O148        H191   0.990       .  S
Zr150       O153   2.375       .  S
Zr150       O618   2.372   1_455  S
Zr150       O510   2.375   1_455  S
Zr150       O151   2.436       .  S
Zr150       O482   2.435   1_455  S
O151        H195   0.990       .  S
O152       Zr480   2.434       .  S
O153       Zr367   2.375   1_545  S
O153       Zr393   2.378   1_545  S
O154       Zr257   2.374   1_546  S
O154       Zr394   2.381   1_545  S
O154        H181   0.966       .  S
O155        C157   1.287       .  A
O156       Zr174   2.417       .  S
O156        C157   1.284       .  A
C157        C198   1.433       .  S
O158       Zr170   2.442       .  S
O158        C160   1.286       .  A
O159       Zr613   2.419       .  S
O159        C160   1.284       .  A
C160        C212   1.432       .  S
O161        C163   1.287       .  A
O162       Zr614   2.418       .  S
O162        C163   1.284       .  A
C163        C210   1.434       .  S
O164       Zr167   2.447       .  S
O164        C166   1.287       .  A
O165       Zr173   2.416       .  S
O165        C166   1.284       .  A
C166        C199   1.433       .  S
Zr167       O505   2.373   1_455  S
Zr167       O616   2.375   1_455  S
Zr167       O179   2.375       .  S
Zr167       O608   2.436   1_455  S
Zr167       O169   2.435       .  S
O168       Zr607   2.436       .  S
O168        H193   0.990       .  S
Zr170       O176   2.376       .  S
Zr170       O290   2.372       .  S
Zr170       O398   2.371       .  S
Zr170       O171   2.434       .  S
Zr170       O392   2.433       .  S
O171        H187   0.990       .  S
O172       Zr390   2.434   1_545  S
O172        H196   0.990       .  S
Zr173       O362   2.419       .  S
Zr173       O599   2.419   1_455  S
Zr173       O373   2.377       .  S
Zr173       O616   2.380   1_455  S
Zr173       O838   2.380   1_455  S
Zr173       O179   2.382       .  S
Zr174       O359   2.419       .  S
Zr174       O602   2.419   1_455  S
Zr174       O374   2.381       .  S
Zr174       O615   2.382   1_455  S
Zr174       O177   2.377       .  S
Zr174       O840   2.378   1_455  S
O175       Zr497   2.372   1_556  S
O175       Zr614   2.382       .  S
O175        H183   0.966       .  S
O176       Zr607   2.375       .  S
O176       Zr613   2.380       .  S
O178       Zr590   2.372       .  S
O178       Zr390   2.371   1_545  S
O178       Zr833   2.380   1_545  S
O178        H182   0.966       .  S
O179        H184   0.966       .  S
O180       Zr480   2.376   1_556  S
O180       Zr280   2.373   1_546  S
O180       Zr834   2.379   1_545  S
C197        C573   1.434       .  S
C197        C198   1.205       .  T
C199        C200   1.204       .  T
C200        C571   1.433       .  S
C201        C202   1.205       .  T
C203        C204   1.206       .  T
C205        C206   1.205       .  T
C206        C207   1.411       .  S
C207        C208   1.205       .  T
C209        C210   1.205       .  T
C211        C212   1.204       .  T
C213        C214   1.205       .  T
C214        C335   1.434       .  S
C215        C216   1.206       .  T
C216        C333   1.436       .  S
C217        C218   1.205       .  T
C218        C219   1.410       .  S
C219        C220   1.205       .  T
C221        N222   1.359       .  A
C221        N226   1.358       .  A
C221        C327   1.434       .  S
C223        N224   1.355       .  A
N224        C225   1.355       .  A
C227        N228   1.359       .  A
C227        N232   1.358       .  A
C227        C330   1.435       .  S
N228        C229   1.358       .  A
C229        N230   1.356       .  A
C229        C319   1.436       .  S
N230        C231   1.356       .  A
C231        N232   1.357       .  A
C231        C321   1.435       .  S
C233        N234   1.359       .  A
C233        N238   1.358       .  A
C233        C315   1.435       .  S
N234        C235   1.358       .  A
C235        N236   1.355       .  A
C235        C313   1.435       .  S
N236        C237   1.355       .  A
C237        N238   1.356       .  A
C237        C311   1.433       .  S
C239        N680   1.358       .  A
C239        N684   1.359       .  A
C239        C318   1.436       .  S
N240        C679   1.358       .  A
N240        C241   1.357       .  A
C241        N242   1.355       .  A
C241        C750   1.434       .  S
N242        C243   1.355       .  A
C243        N244   1.358       .  A
C243        C747   1.436       .  S
N244        C679   1.359       .  A
O245       Zr257   2.445       .  S
O245        C247   1.287       .  A
O246       Zr283   2.420       .  S
O246        C247   1.284       .  A
C247        C325   1.434       .  S
O248       Zr370   2.446       .  S
O248        C250   1.287       .  A
O249        C250   1.283       .  A
C250        C312   1.432       .  S
O251       Zr260   2.446       .  S
O251        C253   1.287       .  A
O252        C253   1.284       .  A
C253        C314   1.434       .  S
O254       Zr367   2.443       .  S
O254        C256   1.287       .  A
O255       Zr284   2.417       .  S
O255        C256   1.284       .  A
C256        C323   1.432       .  S
Zr257       O364   2.444   1_554  S
Zr257       O397   2.374   1_554  S
Zr257       O289   2.373       .  S
Zr257       O369   2.435       .  S
O258        H301   0.990       .  S
O259       Zr367   2.435       .  S
O259        H410   0.990       .  S
O259        H414   0.990       .  S
Zr260       O358   2.446   1_554  S
Zr260       O374   2.372   1_554  S
Zr260       O263   2.373       .  S
Zr260       O728   2.374   1_455  S
Zr260       O840   2.375   1_454  S
Zr260       O261   2.434       .  S
Zr260       O812   2.434   1_455  S
O261        H412   0.990   1_554  S
O261        H305   0.990   1_554  S
O262       Zr810   2.435       .  S
O262        H405   0.990       .  S
O264       Zr370   2.373       .  S
O264        H291   0.966       .  S
O265       Zr387   2.448       .  S
O265        C267   1.287       .  A
O266       Zr284   2.421       .  S
O266        C267   1.285       .  A
C267        C308   1.436       .  S
O268       Zr280   2.447       .  S
O268        C270   1.287       .  A
O269       Zr723   2.418       .  S
O269        C270   1.284       .  A
C270        C322   1.435       .  S
O271       Zr390   2.448       .  S
O271        C273   1.287       .  A
O272       Zr724   2.419       .  S
O272        C273   1.284       .  A
C273        C320   1.436       .  S
O274       Zr277   2.445       .  S
O274        C276   1.287       .  A
O275       Zr283   2.418       .  S
O275        C276   1.284       .  A
C276        C309   1.434       .  S
Zr277       O375   2.446   1_554  S
Zr277       O835   2.373   1_454  S
Zr277       O726   2.374   1_455  S
Zr277       O289   2.372       .  S
Zr277       O397   2.375   1_554  S
Zr277       O718   2.435   1_455  S
Zr277       O279   2.434       .  S
O278       Zr717   2.435       .  S
O278        H408   0.990   1_554  S
O278        H303   0.990   1_554  S
O279        H409   0.990   1_554  S
Zr280       O381   2.447   1_554  S
Zr280       O286   2.375       .  S
Zr280       O395   2.373   1_554  S
Zr280       O281   2.434       .  S
O281        H297   0.990       .  S
O282        H406   0.990   1_554  S
O282        H306   0.990   1_554  S
Zr283       O709   2.419   1_455  S
Zr283       O726   2.378   1_455  S
Zr283       O508   2.382   1_465  S
Zr283       O289   2.381       .  S
Zr284       O712   2.419   1_455  S
Zr284       O725   2.380   1_455  S
Zr284       O287   2.378       .  S
Zr284       O510   2.378   1_465  S
O285       Zr827   2.374       .  S
O285       Zr390   2.373       .  S
O285       Zr724   2.381       .  S
O285        H293   0.966       .  S
O286       Zr717   2.374       .  S
O286       Zr723   2.378       .  S
O287       Zr367   2.375       .  S
O287       Zr387   2.375       .  S
O288       Zr700   2.373       .  S
O288       Zr503   2.382       .  S
O288        H292   0.966       .  S
O289        H294   0.966       .  S
O290       Zr810   2.375       .  S
O290       Zr504   2.378       .  S
H295        O372   0.990       .  S
H296        O392   0.990       .  S
H298        O388   0.990       .  S
H299        O389   0.990       .  S
H300        O369   0.990       .  S
H302        O371   0.990       .  S
H304        O369   0.990       .  S
C307        C683   1.436       .  S
C307        C308   1.206       .  T
C309        C310   1.205       .  T
C310        C681   1.434       .  S
C311        C312   1.204       .  T
C313        C314   1.205       .  T
C315        C316   1.205       .  T
C316        C317   1.412       .  S
C317        C318   1.206       .  T
C319        C320   1.206       .  T
C321        C322   1.206       .  T
C323        C324   1.204       .  T
C325        C326   1.205       .  T
C327        C328   1.205       .  T
C328        C329   1.411       .  S
C329        C330   1.205       .  T
C331        N332   1.359       .  A
C331        N336   1.358       .  A
C331        C437   1.434       .  S
C333        N334   1.356       .  A
N334        C335   1.356       .  A
C337        N338   1.359       .  A
C337        N342   1.358       .  A
C337        C440   1.434       .  S
N338        C339   1.357       .  A
C339        N340   1.355       .  A
C339        C429   1.435       .  S
N340        C341   1.355       .  A
C341        N342   1.356       .  A
C341        C431   1.433       .  S
C343        N344   1.359       .  A
C343        N348   1.359       .  A
C343        C425   1.435       .  S
N344        C345   1.357       .  A
C345        N346   1.355       .  A
C345        C423   1.435       .  S
N346        C347   1.355       .  A
C347        N348   1.357       .  A
C347        C421   1.435       .  S
C349        N790   1.358       .  A
C349        N794   1.359       .  A
C349        C428   1.435       .  S
N350        C789   1.358       .  A
N350        C351   1.356       .  A
C351        N352   1.355       .  A
C351        C860   1.433       .  S
N352        C353   1.355       .  A
C353        N354   1.357       .  A
C353        C857   1.434       .  S
N354        C789   1.359       .  A
O355       Zr367   2.448       .  S
O355        C357   1.287       .  A
O356       Zr393   2.421       .  S
O356        C357   1.285       .  A
C357        C435   1.436       .  S
O358        C360   1.287       .  A
O359        C360   1.284       .  A
C360        C422   1.434       .  S
O361       Zr370   2.447       .  S
O361        C363   1.287       .  A
O362        C363   1.284       .  A
C363        C424   1.435       .  S
O364        C366   1.287       .  A
O365       Zr394   2.418       .  S
O365        C366   1.284       .  A
C366        C433   1.433       .  S
Zr367       O399   2.372       .  S
O368        H411   0.990       .  S
Zr370       O373   2.375       .  S
Zr370       O838   2.372   1_455  S
Zr370       O730   2.375   1_455  S
Zr370       O371   2.436       .  S
Zr370       O702   2.435   1_455  S
O371        H415   0.990       .  S
O372       Zr700   2.434       .  S
O374        H401   0.966       .  S
O375        C377   1.287       .  A
O376       Zr394   2.417       .  S
O376        C377   1.284       .  A
C377        C418   1.433       .  S
O378       Zr390   2.442       .  S
O378        C380   1.286       .  A
O379       Zr833   2.419       .  S
O379        C380   1.284       .  A
C380        C432   1.432       .  S
O381        C383   1.287       .  A
O382       Zr834   2.419       .  S
O382        C383   1.284       .  A
C383        C430   1.434       .  S
O384       Zr387   2.447       .  S
O384        C386   1.287       .  A
O385       Zr393   2.417       .  S
O385        C386   1.284       .  A
C386        C419   1.433       .  S
Zr387       O725   2.373   1_455  S
Zr387       O836   2.375   1_455  S
Zr387       O399   2.375       .  S
Zr387       O828   2.436   1_455  S
Zr387       O389   2.435       .  S
O388       Zr827   2.436       .  S
O388        H413   0.990       .  S
Zr390       O396   2.377       .  S
Zr390       O391   2.433       .  S
O391        H407   0.990       .  S
O392        H416   0.990       .  S
Zr393       O819   2.419   1_455  S
Zr393       O836   2.380   1_455  S
Zr393       O618   2.380   1_465  S
Zr393       O399   2.382       .  S
Zr394       O822   2.419   1_455  S
Zr394       O835   2.382   1_455  S
Zr394       O397   2.377       .  S
Zr394       O620   2.378   1_465  S
O395       Zr717   2.373   1_556  S
O395       Zr834   2.382       .  S
O395        H403   0.966       .  S
O396       Zr827   2.375       .  S
O396       Zr833   2.380       .  S
O398       Zr810   2.371       .  S
O398       Zr613   2.379       .  S
O398        H402   0.966       .  S
O399        H404   0.966       .  S
O400       Zr700   2.376   1_556  S
O400       Zr614   2.379       .  S
C417        C793   1.434       .  S
C417        C418   1.205       .  T
C419        C420   1.205       .  T
C420        C791   1.434       .  S
C421        C422   1.205       .  T
C423        C424   1.206       .  T
C425        C426   1.205       .  T
C426        C427   1.411       .  S
C427        C428   1.205       .  T
C429        C430   1.205       .  T
C431        C432   1.204       .  T
C433        C434   1.205       .  T
C435        C436   1.206       .  T
C437        C438   1.205       .  T
C438        C439   1.410       .  S
C439        C440   1.205       .  T
C441        N442   1.359       .  A
C441        N446   1.358       .  A
C441        C547   1.435       .  S
N442        C663   1.358       .  A
C443        N662   1.358       .  A
C443        N444   1.355       .  A
C443        C766   1.435       .  S
N444        C445   1.355       .  A
C445        N666   1.356       .  A
C445        C764   1.433       .  S
N446        C665   1.356       .  A
C447        N448   1.359       .  A
C447        N452   1.358       .  A
C447        C550   1.435       .  S
N448        C449   1.358       .  A
C449        N450   1.356       .  A
C449        C539   1.436       .  S
N450        C451   1.356       .  A
C451        N452   1.357       .  A
C451        C541   1.435       .  S
C453        N454   1.359       .  A
C453        N458   1.358       .  A
C453        C535   1.435       .  S
N454        C455   1.358       .  A
C455        N456   1.355       .  A
C455        C533   1.435       .  S
N456        C457   1.355       .  A
C457        N458   1.356       .  A
C457        C531   1.433       .  S
C459        C538   1.436       .  S
N460        C461   1.357       .  A
C461        N462   1.355       .  A
N462        C463   1.355       .  A
C463        N464   1.358       .  A
O465       Zr477   2.445       .  S
O465        C467   1.287       .  A
O466       Zr503   2.420       .  S
O466        C467   1.284       .  A
C467        C545   1.434       .  S
O468       Zr590   2.445       .  S
O468        C470   1.287       .  A
O469       Zr724   2.415   1_545  S
O469        C470   1.283       .  A
C470        C532   1.432       .  S
O471       Zr480   2.447       .  S
O471        C473   1.287       .  A
O472       Zr723   2.418   1_545  S
O472        C473   1.284       .  A
C473        C534   1.434       .  S
O474       Zr587   2.443       .  S
O474        C476   1.287       .  A
O475       Zr504   2.417       .  S
O475        C476   1.284       .  A
C476        C543   1.432       .  S
Zr477       O584   2.444   1_554  S
Zr477       O703   2.374       .  S
Zr477       O814   2.374   1_554  S
Zr477       O617   2.374   1_554  S
Zr477       O509   2.373       .  S
Zr477       O698   2.435       .  S
Zr477       O589   2.435       .  S
O478       Zr697   2.435   1_545  S
O478        H521   0.990       .  S
O479       Zr587   2.435       .  S
O479        H630   0.990       .  S
O479        H634   0.990       .  S
Zr480       O578   2.447   1_554  S
Zr480       O594   2.372   1_554  S
Zr480       O483   2.373       .  S
Zr480       O481   2.434       .  S
O481        H632   0.990   1_554  S
O481        H525   0.990   1_554  S
O482        H625   0.990       .  S
O483       Zr697   2.374   1_545  S
O483       Zr723   2.378   1_545  S
O484       Zr807   2.373   1_545  S
O484       Zr590   2.373       .  S
O484       Zr724   2.382   1_545  S
O484        H511   0.966       .  S
O485       Zr607   2.448       .  S
O485        C487   1.287       .  A
O486       Zr504   2.421       .  S
O486        C487   1.285       .  A
C487        C528   1.436       .  S
O488       Zr500   2.447       .  S
O488        C490   1.287       .  A
O489        C490   1.284       .  A
C490        C542   1.435       .  S
O491       Zr610   2.448       .  S
O491        C493   1.287       .  A
O492        C493   1.284       .  A
C493        C540   1.436       .  S
O494       Zr497   2.445       .  S
O494        C496   1.287       .  A
O495       Zr503   2.417       .  S
O495        C496   1.284       .  A
C496        C529   1.433       .  S
Zr497       O595   2.446   1_554  S
Zr497       O509   2.372       .  S
Zr497       O617   2.375   1_554  S
Zr497       O499   2.434       .  S
O498        H628   0.990   1_554  S
O498        H523   0.990   1_554  S
O499        H629   0.990   1_554  S
Zr500       O601   2.446   1_554  S
Zr500       O506   2.375       .  S
Zr500       O615   2.374   1_554  S
Zr500       O840   2.373   1_554  S
Zr500       O728   2.371       .  S
Zr500       O501   2.434       .  S
Zr500       O722   2.434       .  S
O501        H517   0.990       .  S
O502       Zr720   2.434   1_545  S
O502        H626   0.990   1_554  S
O502        H526   0.990   1_554  S
Zr503       O692   2.418       .  S
Zr503       O703   2.378       .  S
Zr503       O509   2.381       .  S
Zr504       O689   2.416       .  S
Zr504       O704   2.381       .  S
Zr504       O507   2.378       .  S
O505       Zr610   2.373       .  S
O505        H513   0.966       .  S
O507       Zr587   2.374       .  S
O507       Zr607   2.375       .  S
O508       Zr720   2.372   1_545  S
O508        H512   0.966       .  S
O509        H514   0.966       .  S
O510       Zr830   2.372   1_545  S
H515        O592   0.990       .  S
H516        O612   0.990       .  S
H518        O608   0.990       .  S
H519        O609   0.990       .  S
H520        O589   0.990       .  S
H522        O591   0.990       .  S
H524        O589   0.990       .  S
C527        C528   1.206       .  T
C529        C530   1.205       .  T
C531        C532   1.204       .  T
C533        C534   1.205       .  T
C535        C536   1.205       .  T
C536        C537   1.412       .  S
C537        C538   1.206       .  T
C539        C540   1.206       .  T
C541        C542   1.206       .  T
C543        C544   1.204       .  T
C544        C665   1.433       .  S
C545        C546   1.205       .  T
C546        C663   1.435       .  S
C547        C548   1.205       .  T
C548        C549   1.411       .  S
C549        C550   1.205       .  T
C551        N552   1.359       .  A
C551        N556   1.358       .  A
C551        C657   1.434       .  S
N552        C773   1.358       .  A
C553        N772   1.358       .  A
C553        N554   1.356       .  A
C553        C876   1.436       .  S
N554        C555   1.356       .  A
C555        N776   1.356       .  A
C555        C874   1.434       .  S
N556        C775   1.356       .  A
C557        N558   1.359       .  A
C557        N562   1.358       .  A
C557        C660   1.434       .  S
N558        C559   1.357       .  A
C559        N560   1.355       .  A
C559        C649   1.434       .  S
N560        C561   1.355       .  A
C561        N562   1.356       .  A
C561        C651   1.433       .  S
C563        N564   1.359       .  A
C563        N568   1.358       .  A
C563        C645   1.435       .  S
N564        C565   1.358       .  A
C565        N566   1.355       .  A
C565        C643   1.435       .  S
N566        C567   1.355       .  A
C567        N568   1.357       .  A
C567        C641   1.435       .  S
C569        C648   1.435       .  S
N570        C571   1.356       .  A
C571        N572   1.355       .  A
N572        C573   1.355       .  A
C573        N574   1.357       .  A
O575       Zr587   2.448       .  S
O575        C577   1.287       .  A
O576       Zr613   2.421       .  S
O576        C577   1.285       .  A
C577        C655   1.436       .  S
O578        C580   1.287       .  A
O579       Zr834   2.419   1_545  S
O579        C580   1.284       .  A
C580        C642   1.434       .  S
O581       Zr590   2.447       .  S
O581        C583   1.287       .  A
O582       Zr833   2.419   1_545  S
O582        C583   1.284       .  A
C583        C644   1.435       .  S
O584        C586   1.287       .  A
O585       Zr614   2.419       .  S
O585        C586   1.284       .  A
C586        C653   1.433       .  S
Zr587       O813   2.375       .  S
Zr587       O704   2.374       .  S
Zr587       O619   2.372       .  S
Zr587       O808   2.433       .  S
O588       Zr807   2.434   1_545  S
O588        H631   0.990       .  S
Zr590       O593   2.375       .  S
Zr590       O591   2.436       .  S
O591        H635   0.990       .  S
O593       Zr807   2.375   1_545  S
O593       Zr833   2.377   1_545  S
O594       Zr697   2.374   1_546  S
O594       Zr834   2.381   1_545  S
O594        H621   0.966       .  S
O595        C597   1.287       .  A
O596       Zr614   2.416       .  S
O596        C597   1.284       .  A
C597        C638   1.433       .  S
O598       Zr610   2.442       .  S
O598        C600   1.286       .  A
O599        C600   1.284       .  A
C600        C652   1.432       .  S
O601        C603   1.287       .  A
O602        C603   1.284       .  A
C603        C650   1.434       .  S
O604       Zr607   2.446       .  S
O604        C606   1.287       .  A
O605       Zr613   2.417       .  S
O605        C606   1.284       .  A
C606        C639   1.432       .  S
Zr607       O619   2.374       .  S
Zr607       O609   2.435       .  S
O608        H633   0.990       .  S
Zr610       O616   2.377       .  S
Zr610       O730   2.372       .  S
Zr610       O838   2.371       .  S
Zr610       O611   2.433       .  S
Zr610       O832   2.434       .  S
O611        H627   0.990       .  S
O612       Zr830   2.434   1_545  S
O612        H636   0.990       .  S
Zr613       O802   2.420       .  S
Zr613       O813   2.377       .  S
Zr613       O619   2.382       .  S
Zr614       O799   2.419       .  S
Zr614       O814   2.381       .  S
Zr614       O617   2.377       .  S
O615        H623   0.966       .  S
O618       Zr830   2.371   1_545  S
O618        H622   0.966       .  S
O619        H624   0.966       .  S
O620       Zr720   2.374   1_546  S
C637        C638   1.205       .  T
C639        C640   1.204       .  T
C641        C642   1.205       .  T
C643        C644   1.206       .  T
C645        C646   1.205       .  T
C646        C647   1.411       .  S
C647        C648   1.205       .  T
C649        C650   1.205       .  T
C651        C652   1.204       .  T
C653        C654   1.205       .  T
C654        C775   1.434       .  S
C655        C656   1.206       .  T
C656        C773   1.436       .  S
C657        C658   1.205       .  T
C658        C659   1.410       .  S
C659        C660   1.205       .  T
C661        N662   1.359       .  A
C661        N666   1.358       .  A
C661        C767   1.435       .  S
C663        N664   1.355       .  A
N664        C665   1.355       .  A
C667        N668   1.359       .  A
C667        N672   1.358       .  A
C667        C770   1.435       .  S
N668        C669   1.357       .  A
C669        N670   1.356       .  A
C669        C759   1.436       .  S
N670        C671   1.356       .  A
C671        N672   1.357       .  A
C671        C761   1.435       .  S
C673        N674   1.359       .  A
C673        N678   1.358       .  A
C673        C755   1.435       .  S
N674        C675   1.358       .  A
C675        N676   1.355       .  A
C675        C753   1.435       .  S
N676        C677   1.355       .  A
C677        N678   1.356       .  A
C677        C751   1.433       .  S
C679        C758   1.435       .  S
N680        C681   1.357       .  A
C681        N682   1.355       .  A
N682        C683   1.355       .  A
C683        N684   1.358       .  A
O685       Zr697   2.445       .  S
O685        C687   1.287       .  A
O686       Zr723   2.421       .  S
O686        C687   1.285       .  A
C687        C765   1.434       .  S
O688       Zr810   2.445       .  S
O688        C690   1.287       .  A
O689        C690   1.283       .  A
C690        C752   1.432       .  S
O691       Zr700   2.447       .  S
O691        C693   1.287       .  A
O692        C693   1.284       .  A
C693        C754   1.435       .  S
O694       Zr807   2.444       .  S
O694        C696   1.287       .  A
O695       Zr724   2.417       .  S
O695        C696   1.284       .  A
C696        C763   1.432       .  S
Zr697       O804   2.445   1_554  S
Zr697       O837   2.374   1_554  S
Zr697       O729   2.373       .  S
Zr697       O809   2.435       .  S
O698        H741   0.990       .  S
O699       Zr807   2.435       .  S
O699        H850   0.990       .  S
O699        H854   0.990       .  S
Zr700       O798   2.445   1_554  S
Zr700       O814   2.373   1_554  S
Zr700       O703   2.373       .  S
Zr700       O701   2.434       .  S
O701        H852   0.990   1_554  S
O701        H745   0.990   1_554  S
O702        H845   0.990       .  S
O704       Zr810   2.372       .  S
O704        H731   0.966       .  S
O705       Zr827   2.448       .  S
O705        C707   1.287       .  A
O706       Zr724   2.420       .  S
O706        C707   1.284       .  A
C707        C748   1.436       .  S
O708       Zr720   2.447       .  S
O708        C710   1.287       .  A
O709        C710   1.284       .  A
C710        C762   1.435       .  S
O711       Zr830   2.447       .  S
O711        C713   1.287       .  A
O712        C713   1.284       .  A
C713        C760   1.435       .  S
O714       Zr717   2.444       .  S
O714        C716   1.287       .  A
O715       Zr723   2.418       .  S
O715        C716   1.284       .  A
C716        C749   1.434       .  S
Zr717       O815   2.446   1_554  S
Zr717       O729   2.372       .  S
Zr717       O837   2.375   1_554  S
Zr717       O719   2.434       .  S
O718        H848   0.990   1_554  S
O718        H743   0.990   1_554  S
O719        H849   0.990   1_554  S
Zr720       O821   2.447   1_554  S
Zr720       O726   2.375       .  S
Zr720       O835   2.373   1_554  S
Zr720       O721   2.434       .  S
O721        H737   0.990       .  S
O722        H846   0.990   1_554  S
O722        H746   0.990   1_554  S
Zr723       O729   2.380       .  S
Zr724       O727   2.378       .  S
O725       Zr830   2.372       .  S
O725        H733   0.966       .  S
O727       Zr807   2.375       .  S
O727       Zr827   2.375       .  S
O728        H732   0.966       .  S
O729        H734   0.966       .  S
H735        O812   0.990       .  S
H736        O832   0.990       .  S
H738        O828   0.990       .  S
H739        O829   0.990       .  S
H740        O809   0.990       .  S
H742        O811   0.990       .  S
H744        O809   0.990       .  S
C747        C748   1.206       .  T
C749        C750   1.205       .  T
C751        C752   1.204       .  T
C753        C754   1.206       .  T
C755        C756   1.205       .  T
C756        C757   1.412       .  S
C757        C758   1.205       .  T
C759        C760   1.206       .  T
C761        C762   1.206       .  T
C763        C764   1.204       .  T
C765        C766   1.205       .  T
C767        C768   1.205       .  T
C768        C769   1.411       .  S
C769        C770   1.205       .  T
C771        N772   1.359       .  A
C771        N776   1.358       .  A
C771        C877   1.434       .  S
C773        N774   1.356       .  A
N774        C775   1.356       .  A
C777        N778   1.359       .  A
C777        N782   1.358       .  A
C777        C880   1.434       .  S
N778        C779   1.357       .  A
C779        N780   1.355       .  A
C779        C869   1.435       .  S
N780        C781   1.355       .  A
C781        N782   1.356       .  A
C781        C871   1.433       .  S
C783        N784   1.359       .  A
C783        N788   1.359       .  A
C783        C865   1.435       .  S
N784        C785   1.357       .  A
C785        N786   1.355       .  A
C785        C863   1.435       .  S
N786        C787   1.355       .  A
C787        N788   1.357       .  A
C787        C861   1.435       .  S
C789        C868   1.435       .  S
N790        C791   1.357       .  A
C791        N792   1.355       .  A
N792        C793   1.355       .  A
C793        N794   1.357       .  A
O795       Zr807   2.448       .  S
O795        C797   1.287       .  A
O796       Zr833   2.421       .  S
O796        C797   1.284       .  A
C797        C875   1.436       .  S
O798        C800   1.287       .  A
O799        C800   1.284       .  A
C800        C862   1.434       .  S
O801       Zr810   2.447       .  S
O801        C803   1.287       .  A
O802        C803   1.284       .  A
C803        C864   1.435       .  S
O804        C806   1.287       .  A
O805       Zr834   2.419       .  S
O805        C806   1.284       .  A
C806        C873   1.434       .  S
Zr807       O839   2.373       .  S
O808        H851   0.990       .  S
Zr810       O813   2.375       .  S
Zr810       O811   2.435       .  S
O811        H855   0.990       .  S
O814        H841   0.966       .  S
O815        C817   1.287       .  A
O816       Zr834   2.418       .  S
O816        C817   1.284       .  A
C817        C858   1.433       .  S
O818       Zr830   2.442       .  S
O818        C820   1.286       .  A
O819        C820   1.284       .  A
C820        C872   1.433       .  S
O821        C823   1.287       .  A
O822        C823   1.284       .  A
C823        C870   1.435       .  S
O824       Zr827   2.447       .  S
O824        C826   1.287       .  A
O825       Zr833   2.416       .  S
O825        C826   1.284       .  A
C826        C859   1.433       .  S
Zr827       O839   2.375       .  S
Zr827       O829   2.435       .  S
O828        H853   0.990       .  S
Zr830       O836   2.376       .  S
Zr830       O831   2.433       .  S
O831        H847   0.990       .  S
O832        H856   0.990       .  S
Zr833       O839   2.382       .  S
Zr834       O837   2.377       .  S
O835        H843   0.966       .  S
O838        H842   0.966       .  S
O839        H844   0.966       .  S
C857        C858   1.205       .  T
C859        C860   1.204       .  T
C861        C862   1.205       .  T
C863        C864   1.206       .  T
C865        C866   1.205       .  T
C866        C867   1.411       .  S
C867        C868   1.205       .  T
C869        C870   1.205       .  T
C871        C872   1.204       .  T
C873        C874   1.205       .  T
C875        C876   1.206       .  T
C877        C878   1.205       .  T
C878        C879   1.410       .  S
C879        C880   1.205       .  T
