geometry optimzed in LAMMPS
_audit_creation_date              2020-11-30 
_audit_creation_method            'lammps2cif' 
_symmetry_space_group_name_H-M    'P1' 
_symmetry_Int_Tables_number       1 
_symmetry_cell_setting            triclinic 
loop_ 
_symmetry_equiv_pos_as_xyz 
  x,y,z 
_cell_length_a                    63.427406175959185 
_cell_length_b                    64.26900300267057 
_cell_length_c                    63.52766858513873 
_cell_angle_alpha                 89.7947624223174 
_cell_angle_beta                  90.09200207360063 
_cell_angle_gamma                 89.80730155280939 
loop_ 
_atom_site_label 
_atom_site_type_symbol 
_atom_site_fract_x 
_atom_site_fract_y 
_atom_site_fract_z 
_atom_site_charge 
N1          N  0.22026688  0.00918420  0.01973796    -0.25880
N2          N  0.21276686  0.99049062  0.02401643    -0.33740
C3          C  0.19496975  0.99238649  0.03527739     0.02460
C4          C  0.19095981  0.01327648  0.03813418     0.08490
C5          C  0.20731767  0.02354492  0.02806707    -0.04610
H6          H  0.18556454  0.97947855  0.04083647     0.09160
H7          H  0.20983628  0.04015827  0.02700821     0.10360
Cu8        Cu  0.22683643  0.96326203  0.01438494     0.44170
Cu9        Cu  0.24797795  0.01408906  0.00319385     0.41990
Cu10       Cu  0.27480607  0.96722048  0.98469980     0.43880
N11         N  0.24334471  0.93784257  0.00359707    -0.33260
N12         N  0.26103692  0.93911005  0.99270468    -0.27520
C13         C  0.26789065  0.91975396  0.98836282    -0.03620
C14         C  0.25372689  0.90587607  0.99697318     0.08600
C15         C  0.23839497  0.91774656  0.00648815     0.02390
H16         H  0.28209076  0.91611875  0.97970317     0.10050
H17         H  0.22472027  0.91224824  0.01497120     0.09120
N18         N  0.28557017  0.99720785  0.97958849    -0.34710
N19         N  0.27609440  0.01419188  0.98657955    -0.26890
C20         C  0.28765058  0.03087910  0.98117891    -0.02130
C21         C  0.30507444  0.02408866  0.97010804     0.06480
C22         C  0.30328229  0.00264556  0.96941439     0.04570
H23         H  0.28365857  0.04680047  0.98505199     0.09680
H24         H  0.31420303  0.99169893  0.96246492     0.08510
N25         N  0.48399895  0.01342943  0.77736961    -0.25880
N26         N  0.50164435  0.01955181  0.78649043    -0.33740
C27         C  0.49678645  0.02904330  0.80474245     0.02460
C28         C  0.47504355  0.02858295  0.80708017     0.08490
C29         C  0.46753812  0.01849748  0.78954316    -0.04610
H30         H  0.50821800  0.03532112  0.81564334     0.09160
H31         H  0.45125566  0.01516731  0.78580513     0.10360
Cu32       Cu  0.53113506  0.01326642  0.77368543     0.44170
Cu33       Cu  0.48251609  0.99865179  0.74880605     0.41990
Cu34       Cu  0.53033622  0.98336096  0.72408592     0.43880
N35         N  0.55778089  0.00288224  0.75774974    -0.33260
N36         N  0.55741124  0.99208870  0.74002113    -0.27520
C37         C  0.57730896  0.98779270  0.73415581    -0.03620
C38         C  0.59071977  0.99621731  0.74888574     0.08600
C39         C  0.57796909  0.00568648  0.76360375     0.02390
H40         H  0.58163567  0.97920895  0.72017859     0.10050
H41         H  0.58294693  0.01400927  0.77752106     0.09120
N42         N  0.50094567  0.97726129  0.71132863    -0.34710
N43         N  0.48333122  0.98346893  0.72043119    -0.26890
C44         C  0.46681806  0.97790431  0.70852205    -0.02130
C45         C  0.47435969  0.96745177  0.69117424     0.06480
C46         C  0.49611040  0.96731656  0.69336278     0.04570
H47         H  0.45051019  0.98107665  0.71233328     0.09680
H48         H  0.50757444  0.96078762  0.68265363     0.08510
N49         N  0.72368951  0.48842676  0.97879261    -0.25880
N50         N  0.71562139  0.50650464  0.97277058    -0.33740
C51         C  0.69817106  0.50319636  0.96133105     0.02460
C52         C  0.69485083  0.48207630  0.96015485     0.08490
C53         C  0.71131599  0.47306542  0.97140887    -0.04610
H54         H  0.68842898  0.51536299  0.95458185     0.09160
H55         H  0.71421621  0.45664330  0.97393474     0.10360
Cu56       Cu  0.72754806  0.53528308  0.98049180     0.44170
Cu57       Cu  0.75130328  0.48584281  0.99654619     0.41990
Cu58       Cu  0.77473415  0.53608177  0.01001058     0.43880
N59         N  0.74107824  0.56254077  0.99076924    -0.33260
N60         N  0.75881547  0.56282398  0.00166776    -0.27520
C61         C  0.76354656  0.58258185  0.00658276    -0.03620
C62         C  0.74792043  0.59518761  0.99839224     0.08600
C63         C  0.73393043  0.58212354  0.98841812     0.02390
H64         H  0.77718562  0.58732944  0.01558828     0.10050
H65         H  0.71960868  0.58644873  0.98021730     0.09120
N66         N  0.78703582  0.50771571  0.01892310    -0.34710
N67         N  0.77888362  0.48940999  0.01412980    -0.26890
C68         C  0.79100723  0.47441136  0.02280730    -0.02130
C69         C  0.80739881  0.48388500  0.03362666     0.06480
C70         C  0.80431883  0.50491809  0.03081370     0.04570
H71         H  0.78791173  0.45791709  0.02151442     0.09680
H72         H  0.81397829  0.51736320  0.03694068     0.08510
N73         N  0.77871734  0.51080147  0.47744254    -0.25880
N74         N  0.78637163  0.49236570  0.47225481    -0.33740
C75         C  0.80440206  0.49497641  0.46147914     0.02460
C76         C  0.80845486  0.51603256  0.45995066     0.08490
C77         C  0.79181946  0.52565526  0.47025479    -0.04610
H78         H  0.81398510  0.48242343  0.45536684     0.09160
H79         H  0.78924624  0.54218803  0.47222027     0.10360
Cu80       Cu  0.77225093  0.46441592  0.48035719     0.44170
Cu81       Cu  0.75057908  0.51460347  0.49373893     0.41990
Cu82       Cu  0.72430545  0.46681446  0.51076556     0.43880
N83         N  0.75583977  0.43826215  0.49012604    -0.33260
N84         N  0.73827514  0.43901417  0.50130498    -0.27520
C85         C  0.73145243  0.41944993  0.50470248    -0.03620
C86         C  0.74542589  0.40589489  0.49517419     0.08600
C87         C  0.76068750  0.41826651  0.48613311     0.02390
H88         H  0.71733372  0.41544131  0.51331145     0.10050
H89         H  0.77423473  0.41316189  0.47719119     0.09120
N90         N  0.71293397  0.49665898  0.51666220    -0.34710
N91         N  0.72221666  0.51390113  0.51007602    -0.26890
C92         C  0.71034819  0.53036378  0.51565500    -0.02130
C93         C  0.69289510  0.52322335  0.52644244     0.06480
C94         C  0.69502163  0.50175352  0.52678195     0.04570
H95         H  0.71415206  0.54639949  0.51209314     0.09680
H96         H  0.68416912  0.49058501  0.53343233     0.08510
N97         N  0.92174565  0.62374349  0.43743861    -0.25880
N98         N  0.93609002  0.62427469  0.42241797    -0.33740
C99         C  0.94869947  0.64075406  0.42529185     0.02460
C100        C  0.94220020  0.65100574  0.44317980     0.08490
C101        C  0.92501199  0.63983892  0.45054875    -0.04610
H102        H  0.96199147  0.64463655  0.41540315     0.09160
H103        H  0.91558320  0.64311917  0.46431508     0.10360
Cu104      Cu  0.93883784  0.60166769  0.39980474     0.44170
Cu105      Cu  0.89883503  0.60073884  0.43864925     0.41990
Cu106      Cu  0.90215310  0.55885304  0.39895728     0.43880
N107        N  0.94129078  0.57693635  0.37955346    -0.33260
N108        N  0.92778920  0.56134610  0.37856038    -0.27520
C109        C  0.93421220  0.54812418  0.36341610    -0.03620
C110        C  0.95273860  0.55582852  0.35481148     0.08600
C111        C  0.95673403  0.57398610  0.36548133     0.02390
H112        H  0.92626255  0.53381779  0.35933427     0.10050
H113        H  0.96988002  0.58441680  0.36312470     0.09120
N114        N  0.87906047  0.56089370  0.42225566    -0.34710
N115        N  0.87778319  0.57614286  0.43617168    -0.26890
C116        C  0.86099329  0.57288701  0.44863477    -0.02130
C117        C  0.85133213  0.55465949  0.44253638     0.06480
C118        C  0.86318699  0.54743835  0.42573363     0.04570
H119        H  0.85632169  0.58295168  0.46143859     0.09680
H120        H  0.86045407  0.53353755  0.41657708     0.08510
N121        N  0.00982649  0.77881226  0.48162463    -0.25880
N122        N  0.01638755  0.78833390  0.49885530    -0.33740
C123        C  0.02580977  0.80627559  0.49336001     0.02460
C124        C  0.02504494  0.80819893  0.47162518     0.08490
C125        C  0.01473305  0.79055813  0.46475512    -0.04610
H126        H  0.03229447  0.81726876  0.50446128     0.09160
H127        H  0.01105710  0.78653844  0.44864174     0.10360
Cu128      Cu  0.01139140  0.77722555  0.52924780     0.44170
Cu129      Cu  0.99433136  0.75034743  0.48160267     0.41990
Cu130      Cu  0.98252164  0.72903175  0.53273603     0.43880
N131        N  0.00287012  0.76334780  0.55761060    -0.33260
N132        N  0.99227911  0.74568118  0.55868895    -0.27520
C133        C  0.98884898  0.74081662  0.57897846    -0.03620
C134        C  0.99764831  0.75616692  0.59120831     0.08600
C135        C  0.00645205  0.77022973  0.57729666     0.02390
H136        H  0.98049670  0.72714888  0.58437499     0.10050
H137        H  0.01475231  0.78440501  0.58114589     0.09120
N138        N  0.97390367  0.71489232  0.50491983    -0.34710
N139        N  0.97849920  0.72241522  0.48609758    -0.26890
C140        C  0.97082054  0.70947159  0.47137106    -0.02130
C141        C  0.96081828  0.69311400  0.48152316     0.06480
C142        C  0.96304274  0.69711552  0.50273183     0.04570
H143        H  0.97214418  0.71202414  0.45459327     0.09680
H144        H  0.95725875  0.68775112  0.51565923     0.08510
N145        N  0.51322502  0.27699957  0.97997811    -0.25880
N146        N  0.51925097  0.28632145  0.99747457    -0.33740
C147        C  0.52752030  0.30495117  0.99247734     0.02460
C148        C  0.52644033  0.30740176  0.97078160     0.08490
C149        C  0.51721528  0.28943974  0.96343609    -0.04610
H150        H  0.53360658  0.31592415  0.00382445     0.09160
H151        H  0.51389920  0.28554387  0.94721409     0.10360
Cu152      Cu  0.51511044  0.27315892  0.02714115     0.44170
Cu153      Cu  0.50012261  0.24776170  0.97922718     0.41990
Cu154      Cu  0.48746854  0.22297167  0.02829989     0.43880
N155        N  0.50782316  0.25675698  0.05445970    -0.33260
N156        N  0.49773790  0.23874369  0.05481724    -0.27520
C157        C  0.49548527  0.23250262  0.07491570    -0.03620
C158        C  0.50458699  0.24724468  0.08770499     0.08600
C159        C  0.51221682  0.26242792  0.07436302     0.02390
H160        H  0.48773247  0.21831492  0.07980898     0.10050
H161        H  0.52026089  0.27659466  0.07875409     0.09120
N162        N  0.48069244  0.21001074  0.99923114    -0.34710
N163        N  0.48605235  0.21902857  0.98131233    -0.26890
C164        C  0.48031098  0.20684924  0.96520600    -0.02130
C165        C  0.47062664  0.18941867  0.97330116     0.06480
C166        C  0.47111887  0.19183566  0.99497362     0.04570
H167        H  0.48275943  0.21057229  0.94877472     0.09680
H168        H  0.46524359  0.18116023  0.00676553     0.08510
N169        N  0.41973953  0.11574527  0.94404509    -0.25880
N170        N  0.43442008  0.11900135  0.92968768    -0.33740
C171        C  0.44675455  0.13476084  0.93590605     0.02460
C172        C  0.43952130  0.14172023  0.95520043     0.08490
C173        C  0.42242948  0.12928411  0.95991608    -0.04610
H174        H  0.46031817  0.14023229  0.92724664     0.09160
H175        H  0.41275607  0.12991912  0.97390314     0.10360
Cu176      Cu  0.43841573  0.10081774  0.90326139     0.44170
Cu177      Cu  0.39737589  0.09253816  0.94159356     0.41990
Cu178      Cu  0.40431763  0.05621941  0.89845816     0.43880
N179        N  0.44195719  0.07839702  0.88034160    -0.33260
N180        N  0.42944025  0.06210392  0.87851350    -0.27520
C181        C  0.43650866  0.05002302  0.86279889    -0.03620
C182        C  0.45443724  0.05913482  0.85445405     0.08600
C183        C  0.45743023  0.07705458  0.86596970     0.02390
H184        H  0.42946371  0.03537724  0.85832688     0.10050
H185        H  0.47012427  0.08813554  0.86428090     0.09120
N186        N  0.38076984  0.05375324  0.92089757    -0.34710
N187        N  0.37800420  0.06726599  0.93630187    -0.26890
C188        C  0.36150643  0.06128931  0.94807471    -0.02130
C189        C  0.35357742  0.04305559  0.93971956     0.06480
C190        C  0.36620553  0.03868831  0.92258764     0.04570
H191        H  0.35613595  0.06936567  0.96198784     0.09680
H192        H  0.36497433  0.02545950  0.91216337     0.08510
N193        N  0.51426299  0.51144539  0.72167624    -0.25880
N194        N  0.49680206  0.51801602  0.71231693    -0.33740
C195        C  0.50189636  0.52757480  0.69414453     0.02460
C196        C  0.52361431  0.52690423  0.69188975     0.08490
C197        C  0.53089325  0.51650771  0.70957822    -0.04610
H198        H  0.49053916  0.53405991  0.68320994     0.09160
H199        H  0.54711524  0.51280621  0.71334260     0.10360
Cu200      Cu  0.46663657  0.51293905  0.72394067     0.44170
Cu201      Cu  0.51492437  0.49555958  0.75033872     0.41990
Cu202      Cu  0.46402671  0.48202066  0.77134837     0.43880
N203        N  0.43852260  0.50495075  0.73859135    -0.33260
N204        N  0.43769849  0.49351936  0.75592435    -0.27520
C205        C  0.41745256  0.49107995  0.76162281    -0.03620
C206        C  0.40501265  0.50147450  0.74719306     0.08600
C207        C  0.41874755  0.51007626  0.73275775     0.02390
H208        H  0.41222763  0.48239341  0.77525831     0.10050
H209        H  0.41471741  0.51933082  0.71906298     0.09120
N210        N  0.49216472  0.47372879  0.78562009    -0.34710
N211        N  0.51090071  0.47912348  0.77838222    -0.26890
C212        C  0.52579275  0.47206650  0.79179817    -0.02130
C213        C  0.51584543  0.46164508  0.80816691     0.06480
C214        C  0.49458853  0.46295600  0.80363849     0.04570
H215        H  0.54255008  0.47422580  0.78964980     0.09680
H216        H  0.48176228  0.45680468  0.81294752     0.08510
N217        N  0.98196346  0.48777199  0.21629833    -0.25880
N218        N  0.99957185  0.48074867  0.20776522    -0.33740
C219        C  0.99482467  0.47150326  0.18935814     0.02460
C220        C  0.97318110  0.47299502  0.18628780     0.08490
C221        C  0.96563541  0.48346081  0.20360981    -0.04610
H222        H  0.00627942  0.46443585  0.17898926     0.09160
H223        H  0.94938715  0.48736399  0.20695453     0.10360
Cu224      Cu  0.02892289  0.48479477  0.22192694     0.44170
Cu225      Cu  0.98042446  0.50195401  0.24519573     0.41990
Cu226      Cu  0.02843067  0.51213163  0.27290058     0.43880
N227        N  0.05575594  0.49218620  0.23930605    -0.33260
N228        N  0.05556818  0.50214564  0.25753540    -0.27520
C229        C  0.07554067  0.50442374  0.26433021    -0.03620
C230        C  0.08881386  0.49547712  0.24973069     0.08600
C231        C  0.07586766  0.48791034  0.23406864     0.02390
H232        H  0.08002395  0.51204308  0.27882019     0.10050
H233        H  0.08067342  0.47994272  0.21987816     0.09120
N234        N  0.99876340  0.51856392  0.28522885    -0.34710
N235        N  0.98117511  0.51427184  0.27499187    -0.26890
C236        C  0.96453662  0.51898526  0.28712893    -0.02130
C237        C  0.97192956  0.52686310  0.30587439     0.06480
C238        C  0.99374796  0.52642883  0.30419228     0.04570
H239        H  0.94824410  0.51691588  0.28256811     0.09680
H240        H  0.00513004  0.53105098  0.31596400     0.08510
N241        N  0.87518236  0.42396753  0.06014058    -0.25880
N242        N  0.87693408  0.43936101  0.07377185    -0.33740
C243        C  0.86073264  0.45266404  0.07068282     0.02460
C244        C  0.84831102  0.44498635  0.05444499     0.08490
C245        C  0.85790013  0.42679111  0.04830694    -0.04610
H246        H  0.85833257  0.46687797  0.07945038     0.09160
H247        H  0.85315169  0.41671071  0.03554871     0.10360
Cu248      Cu  0.90173232  0.44116204  0.09540534     0.44170
Cu249      Cu  0.89698785  0.40081530  0.05600310     0.41990
Cu250      Cu  0.94110369  0.39941792  0.09001514     0.43880
N251        N  0.92843895  0.43777068  0.11447123    -0.33260
N252        N  0.94252709  0.42270438  0.11223168    -0.27520
C253        C  0.95809917  0.42525492  0.12631973    -0.03620
C254        C  0.95366075  0.44262982  0.13816890     0.08600
C255        C  0.93469930  0.45023095  0.13028805     0.02390
H256        H  0.97173885  0.41519444  0.12775313     0.10050
H257        H  0.92625253  0.46397991  0.13533547     0.09120
N258        N  0.93766394  0.37936820  0.06499015    -0.34710
N259        N  0.92140578  0.38033329  0.05204667    -0.26890
C260        C  0.92399525  0.36644227  0.03654689    -0.02130
C261        C  0.94270205  0.35605454  0.04008456     0.06480
C262        C  0.95103648  0.36459416  0.05826312     0.04570
H263        H  0.91303575  0.36406399  0.02372181     0.09680
H264        H  0.96586722  0.36077681  0.06577898     0.08510
N265        N  0.01365103  0.22019264  0.01409410    -0.25880
N266        N  0.02011615  0.21121497  0.99658110    -0.33740
C267        C  0.02846089  0.19254189  0.00138748     0.02460
C268        C  0.02693065  0.18977139  0.02297290     0.08490
C269        C  0.01739710  0.20750648  0.03047962    -0.04610
H270        H  0.03481755  0.18174902  0.98999145     0.09160
H271        H  0.01372254  0.21109735  0.04669071     0.10360
Cu272      Cu  0.01606476  0.22465880  0.96721355     0.44170
Cu273      Cu  0.00057073  0.24930329  0.01521274     0.41990
Cu274      Cu  0.98829790  0.27484806  0.96652385     0.43880
N275        N  0.00728042  0.24051139  0.94016853    -0.33260
N276        N  0.99708247  0.25852175  0.93992209    -0.27520
C277        C  0.99331522  0.26409409  0.91985281    -0.03620
C278        C  0.00150390  0.24885065  0.90703720     0.08600
C279        C  0.01024160  0.23414203  0.92026198     0.02390
H280        H  0.98510126  0.27810752  0.91501967     0.10050
H281        H  0.01797666  0.21978297  0.91581633     0.09120
N282        N  0.98254037  0.28785742  0.99568658    -0.34710
N283        N  0.98771389  0.27849371  0.01350230    -0.26890
C284        C  0.98278893  0.29083011  0.02974322    -0.02130
C285        C  0.97382185  0.30872956  0.02179897     0.06480
C286        C  0.97386474  0.30643548  0.00012381     0.04570
H287        H  0.98524568  0.28687553  0.04613186     0.09680
H288        H  0.96828070  0.31744685  0.98845093     0.08510
N289        N  0.06037370  0.11784028  0.06716646    -0.25880
N290        N  0.07736471  0.11733313  0.05523658    -0.33740
C291        C  0.07569906  0.13173764  0.04000280     0.02460
C292        C  0.05681619  0.14201273  0.04262958     0.08490
C293        C  0.04741145  0.13287452  0.06002538    -0.04610
H294        H  0.08737577  0.13449053  0.02792972     0.09160
H295        H  0.03216406  0.13647670  0.06669887     0.10360
Cu296      Cu  0.10141774  0.09660795  0.05989910     0.44170
Cu297      Cu  0.05586136  0.09693606  0.09152143     0.41990
Cu298      Cu  0.09579350  0.05565936  0.09873585     0.43880
N299        N  0.12252360  0.07279521  0.06363613    -0.33260
N300        N  0.12046489  0.05718653  0.07707058    -0.27520
C301        C  0.13634736  0.04358582  0.07382191    -0.03620
C302        C  0.14885681  0.05130741  0.05767487     0.08600
C303        C  0.13966779  0.06980906  0.05174403     0.02390
H304        H  0.13854481  0.02923061  0.08250504     0.10050
H305        H  0.14468335  0.08009736  0.03920885     0.09120
N306        N  0.06908528  0.05940171  0.11756144    -0.34710
N307        N  0.05469140  0.07407029  0.11447025    -0.26890
C308        C  0.03924244  0.07188790  0.12871340    -0.02130
C309        C  0.04412361  0.05526221  0.14159817     0.06480
C310        C  0.06317436  0.04763561  0.13413044     0.04570
H311        H  0.02545521  0.08179408  0.12966251     0.09680
H312        H  0.07191834  0.03434692  0.14000640     0.08510
N313        N  0.00842740  0.98063657  0.27751790    -0.25880
N314        N  0.98942297  0.97641933  0.28481896    -0.33740
C315        C  0.99116160  0.96475744  0.30232676     0.02460
C316        C  0.01228992  0.96157044  0.30637309     0.08490
C317        C  0.02285330  0.97186488  0.29032296    -0.04610
H318        H  0.97799585  0.95920329  0.31154396     0.09160
H319        H  0.03969443  0.97278129  0.28792211     0.10360
Cu320      Cu  0.96205517  0.98680122  0.27085879     0.44170
Cu321      Cu  0.01354918  0.99749047  0.25006578     0.41990
Cu322      Cu  0.96636343  0.01538812  0.22217364     0.43880
N323        N  0.93650235  0.99844169  0.25463844    -0.33260
N324        N  0.93782786  0.00884672  0.23669761    -0.27520
C325        C  0.91823204  0.01384560  0.23019456    -0.03620
C326        C  0.90416646  0.00622631  0.24487189     0.08600
C327        C  0.91616646  0.99654988  0.26009635     0.02390
H328        H  0.91454799  0.02221246  0.21583925     0.10050
H329        H  0.91058074  0.98852569  0.27400086     0.09120
N330        N  0.99693826  0.01955508  0.21131869    -0.34710
N331        N  0.01402301  0.01299547  0.22134113    -0.26890
C332        C  0.03109315  0.01753683  0.20966341    -0.02130
C333        C  0.02448027  0.02752838  0.19151115     0.06480
C334        C  0.00270678  0.02854913  0.19308413     0.04570
H335        H  0.04713938  0.01370719  0.21401002     0.09680
H336        H  0.99175055  0.03491384  0.18168263     0.08510
N337        N  0.22008451  0.98546390  0.48458877    -0.25880
N338        N  0.21031024  0.00283343  0.47910963    -0.33740
C339        C  0.19144424  0.99791275  0.47078502     0.02460
C340        C  0.18941466  0.97641226  0.47134616     0.08490
C341        C  0.20779020  0.96910076  0.48025348    -0.04610
H342        H  0.17998896  0.00913508  0.46515945     0.09160
H343        H  0.21202474  0.95303004  0.48325143     0.10360
Cu344      Cu  0.22334821  0.03202847  0.48451921     0.44170
Cu345      Cu  0.24950824  0.98452829  0.49773118     0.41990
Cu346      Cu  0.27418502  0.03213897  0.51310450     0.43880
N347        N  0.23977074  0.05871574  0.49313254    -0.33260
N348        N  0.25792849  0.05875990  0.50348743    -0.27520
C349        C  0.26407247  0.07858887  0.50634351    -0.03620
C350        C  0.24911267  0.09152156  0.49738654     0.08600
C351        C  0.23393154  0.07851601  0.48918415     0.02390
H352        H  0.27841381  0.08320470  0.51426506     0.10050
H353        H  0.21972319  0.08306222  0.48090594     0.09120
N354        N  0.28727719  0.00291810  0.51889036    -0.34710
N355        N  0.27818457  0.98562726  0.51239760    -0.26890
C356        C  0.29028250  0.96923887  0.51747633    -0.02130
C357        C  0.30778504  0.97641767  0.52793448     0.06480
C358        C  0.30549782  0.99789133  0.52861346     0.04570
H359        H  0.28645105  0.95320887  0.51399591     0.09680
H360        H  0.31634509  0.00902181  0.53530421     0.08510
N361        N  0.07141138  0.93620140  0.37580216    -0.25880
N362        N  0.05603874  0.92244931  0.37729642    -0.33740
C363        C  0.04263556  0.92547691  0.36105494     0.02460
C364        C  0.05027413  0.94180161  0.34889253     0.08490
C365        C  0.06850592  0.94806625  0.35866873    -0.04610
H366        H  0.02849628  0.91650635  0.35835076     0.09160
H367        H  0.07865097  0.96078459  0.35403537     0.10360
Cu368      Cu  0.05481960  0.90057640  0.40168347     0.44170
Cu369      Cu  0.09484804  0.94009846  0.39754982     0.41990
Cu370      Cu  0.09700658  0.90661186  0.44162079     0.43880
N371        N  0.05893796  0.88125316  0.42793594    -0.33260
N372        N  0.07393727  0.88374000  0.44223442    -0.27520
C373        C  0.07170177  0.86924962  0.45736262    -0.03620
C374        C  0.05467845  0.85688436  0.45238905     0.08600
C375        C  0.04691562  0.86490208  0.43359821     0.02390
H376        H  0.08173218  0.86787928  0.47108849     0.10050
H377        H  0.03329353  0.85959618  0.42490473     0.09120
N378        N  0.11730274  0.93163135  0.43789692    -0.34710
N379        N  0.11594090  0.94425505  0.42152451    -0.26890
C380        C  0.12994050  0.95970705  0.42356927    -0.02130
C381        C  0.14089857  0.95657023  0.44203555     0.06480
C382        C  0.13255323  0.93858474  0.45080997     0.04570
H383        H  0.13199322  0.97227489  0.41238794     0.09680
H384        H  0.13684028  0.93137317  0.46562331     0.08510
N385        N  0.51052046  0.71795324  0.51267023    -0.25880
N386        N  0.51788990  0.70976407  0.49509825    -0.33740
C387        C  0.52791684  0.69181134  0.49979634     0.02460
C388        C  0.52658671  0.68862640  0.52137621     0.08490
C389        C  0.51539028  0.70543680  0.52894084    -0.04610
H390        H  0.53518119  0.68168311  0.48831759     0.09160
H391        H  0.51117098  0.70843319  0.54514375     0.10360
Cu392      Cu  0.51258359  0.72332296  0.46576153     0.44170
Cu393      Cu  0.49463266  0.74597946  0.51403180     0.41990
Cu394      Cu  0.48281652  0.77273747  0.46576802     0.43880
N395        N  0.50260617  0.73905968  0.43882081    -0.33260
N396        N  0.49183262  0.75676048  0.43882522    -0.27520
C397        C  0.48732861  0.76214660  0.41881808    -0.03620
C398        C  0.49558410  0.74711444  0.40573522     0.08600
C399        C  0.50518728  0.73275021  0.41880845     0.02390
H400        H  0.47849045  0.77585818  0.41420073     0.10050
H401        H  0.51322403  0.71861355  0.41417647     0.09120
N402        N  0.47579200  0.78483160  0.49524093    -0.34710
N403        N  0.48049460  0.77491894  0.51289951    -0.26890
C404        C  0.47502749  0.78679684  0.52936595    -0.02130
C405        C  0.46624428  0.80500079  0.52178531     0.06480
C406        C  0.46694029  0.80329529  0.50003427     0.04570
H407        H  0.47740037  0.78252368  0.54568546     0.09680
H408        H  0.46193028  0.81476332  0.48855455     0.08510
N409        N  0.42042462  0.88164171  0.55248012    -0.25880
N410        N  0.43588491  0.87822305  0.56605284    -0.33740
C411        C  0.44736921  0.86187542  0.55947818     0.02460
C412        C  0.43876344  0.85477303  0.54078073     0.08490
C413        C  0.42179186  0.86771863  0.53678301    -0.04610
H414        H  0.46120929  0.85597400  0.56750018     0.09160
H415        H  0.41118198  0.86705926  0.52345738     0.10360
Cu416      Cu  0.44139450  0.89658571  0.59227025     0.44170
Cu417      Cu  0.39829690  0.90515045  0.55574318     0.41990
Cu418      Cu  0.40418326  0.93869231  0.60064197     0.43880
N419        N  0.44395651  0.91814533  0.61634610    -0.33260
N420        N  0.43005005  0.93316372  0.61953235    -0.27520
C421        C  0.43634558  0.94481243  0.63584245    -0.03620
C422        C  0.45522861  0.93680269  0.64326040     0.08600
C423        C  0.45962296  0.91995296  0.63051978     0.02390
H424        H  0.42808371  0.95851420  0.64130837     0.10050
H425        H  0.47333195  0.90992528  0.63129837     0.09120
N426        N  0.38126213  0.94289964  0.57800591    -0.34710
N427        N  0.37893127  0.93042936  0.56168616    -0.26890
C428        C  0.36316359  0.93765320  0.54954709    -0.02130
C429        C  0.35531687  0.95563697  0.55865348     0.06480
C430        C  0.36718287  0.95852085  0.57661947     0.04570
H431        H  0.35831545  0.93064235  0.53487096     0.09680
H432        H  0.36586666  0.97117130  0.58774723     0.08510
N433        N  0.56662998  0.55888410  0.61727173    -0.25880
N434        N  0.55263466  0.57390815  0.61426598    -0.33740
C435        C  0.53741375  0.57225308  0.62890319     0.02460
C436        C  0.54213615  0.55555247  0.64188181     0.08490
C437        C  0.56078989  0.54741096  0.63403568    -0.04610
H438        H  0.52387542  0.58247120  0.63001454     0.09160
H439        H  0.56928595  0.53389427  0.63973280     0.10360
Cu440      Cu  0.55480204  0.59601397  0.59039463     0.44170
Cu441      Cu  0.59252205  0.55408463  0.59785045     0.41990
Cu442      Cu  0.59961200  0.59137504  0.55551679     0.43880
N443        N  0.56032086  0.61598889  0.56520037    -0.33260
N444        N  0.57657605  0.61412985  0.55233416    -0.27520
C445        C  0.57512272  0.62874989  0.53718495    -0.03620
C446        C  0.55720612  0.64049654  0.54075734     0.08600
C447        C  0.54818549  0.63197678  0.55868246     0.02390
H448        H  0.58622727  0.63059551  0.52441816     0.10050
H449        H  0.53363449  0.63664104  0.56617649     0.09120
N450        N  0.61939759  0.56610168  0.56059367    -0.34710
N451        N  0.61656779  0.55222526  0.57573644    -0.26890
C452        C  0.63122046  0.53715535  0.57387742    -0.02130
C453        C  0.64398142  0.54185524  0.55689504     0.06480
C454        C  0.63602526  0.56034303  0.54883033     0.04570
H455        H  0.63236927  0.52364084  0.58402597     0.09680
H456        H  0.64142544  0.56869554  0.53506178     0.08510
N457        N  0.56187021  0.37956869  0.92716808    -0.25880
N458        N  0.57800775  0.37998056  0.94035762    -0.33740
C459        C  0.57530815  0.36554717  0.95539152     0.02460
C460        C  0.55672237  0.35527522  0.95148215     0.08490
C461        C  0.54851451  0.36447605  0.93341186    -0.04610
H462        H  0.58613947  0.36276075  0.96827396     0.09160
H463        H  0.53377024  0.36086232  0.92569417     0.10360
Cu464      Cu  0.60303316  0.40009411  0.93830588     0.44170
Cu465      Cu  0.55877268  0.40062159  0.90220909     0.41990
Cu466      Cu  0.60083587  0.44001179  0.89971517     0.43880
N467        N  0.62572392  0.42270976  0.93591520    -0.33260
N468        N  0.62471432  0.43799912  0.92202141    -0.27520
C469        C  0.64099895  0.45095716  0.92527844    -0.03620
C470        C  0.65280817  0.44327629  0.94202838     0.08600
C471        C  0.64270216  0.42532083  0.94827369     0.02390
H472        H  0.64389465  0.46490643  0.91617266     0.10050
H473        H  0.64699979  0.41521656  0.96125595     0.09120
N474        N  0.57578953  0.43819767  0.87872147    -0.34710
N475        N  0.56045721  0.42429097  0.87963207    -0.26890
C476        C  0.54689752  0.42791976  0.86366927    -0.02130
C477        C  0.55415937  0.44481901  0.85214955     0.06480
C478        C  0.57248969  0.45083043  0.86211911     0.04570
H479        H  0.53298934  0.41872729  0.86056782     0.09680
H480        H  0.58269410  0.46356321  0.85767283     0.08510
N481        N  0.52521347  0.23630809  0.26186504    -0.25880
N482        N  0.53470898  0.22908609  0.24484682    -0.33740
C483        C  0.55227766  0.21876282  0.25065466     0.02460
C484        C  0.55398849  0.21960070  0.27238057     0.08490
C485        C  0.53662601  0.23091002  0.27892569    -0.04610
H486        H  0.56319102  0.21162772  0.23976756     0.09160
H487        H  0.53259542  0.23496298  0.29493980     0.10360
Cu488      Cu  0.52416454  0.23430741  0.21429653     0.44170
Cu489      Cu  0.49725624  0.25336126  0.26129039     0.41990
Cu490      Cu  0.47725857  0.26589785  0.20964795     0.43880
N491        N  0.51089306  0.24292262  0.18563387    -0.33260
N492        N  0.49369647  0.25453012  0.18410343    -0.27520
C493        C  0.48910803  0.25765152  0.16367872    -0.03620
C494        C  0.50414924  0.24756360  0.15185117     0.08600
C495        C  0.51775438  0.23835716  0.16613016     0.02390
H496        H  0.47585985  0.26667265  0.15791962     0.10050
H497        H  0.53161084  0.22913825  0.16265576     0.09120
N498        N  0.46281209  0.27537271  0.23710615    -0.34710
N499        N  0.46981656  0.27049708  0.25610217    -0.26890
C500        C  0.45653109  0.27846015  0.27049812    -0.02130
C501        C  0.44047154  0.28892846  0.25996291     0.06480
C502        C  0.44504215  0.28668850  0.23885886     0.04570
H503        H  0.45853019  0.27678206  0.28732738     0.09680
H504        H  0.43591381  0.29253802  0.22570039     0.08510
N505        N  0.26674507  0.73592966  0.02757627    -0.25880
N506        N  0.27257227  0.75410747  0.03534893    -0.33740
C507        C  0.28382863  0.75102289  0.05298925     0.02460
C508        C  0.28512010  0.72995189  0.05679964     0.08490
C509        C  0.27408701  0.72073576  0.04038693    -0.04610
H510        H  0.29050431  0.76332530  0.06246569     0.09160
H511        H  0.27177945  0.70426951  0.03777579     0.10360
Cu512      Cu  0.26534833  0.78279442  0.02251982     0.44170
Cu513      Cu  0.24946040  0.73303730  0.99957793     0.41990
Cu514      Cu  0.23411171  0.78323427  0.97654300     0.43880
N515        N  0.25688824  0.80999685  0.00736218    -0.33260
N516        N  0.24519071  0.81015876  0.99015072    -0.27520
C517        C  0.24254229  0.82991159  0.98361646    -0.03620
C518        C  0.25314160  0.84263965  0.99745488     0.08600
C519        C  0.26202407  0.82964564  0.01236155     0.02390
H520        H  0.23363165  0.83459143  0.96985042     0.10050
H521        H  0.27151859  0.83407434  0.02576938     0.09120
N522        N  0.22626859  0.75473445  0.96396855    -0.34710
N523        N  0.23211819  0.73642831  0.97164165    -0.26890
C524        C  0.22493486  0.72144102  0.95866873    -0.02130
C525        C  0.21398912  0.73092072  0.94225114     0.06480
C526        C  0.21513227  0.75193380  0.94623533     0.04570
H527        H  0.22739345  0.70494034  0.96110843     0.09680
H528        H  0.20863389  0.76439059  0.93670438     0.08510
N529        N  0.23096228  0.52539549  0.75825928    -0.25880
N530        N  0.24828214  0.53483013  0.76478254    -0.33740
C531        C  0.24294543  0.55307440  0.77365723     0.02460
C532        C  0.22121672  0.55532418  0.77258026     0.08490
C533        C  0.21418345  0.53752507  0.76264631    -0.04610
H534        H  0.25416412  0.56402586  0.78003132     0.09160
H535        H  0.19802508  0.53361995  0.75896338     0.10360
Cu536      Cu  0.27864664  0.52325217  0.76049888     0.44170
Cu537      Cu  0.23078089  0.49645956  0.74359991     0.41990
Cu538      Cu  0.28205282  0.47497628  0.73192140     0.43880
N539        N  0.30705705  0.50919166  0.75236051    -0.33260
N540        N  0.30814131  0.49152559  0.74178816    -0.27520
C541        C  0.32848234  0.48660265  0.73851880    -0.03620
C542        C  0.34072691  0.50191237  0.74741009     0.08600
C543        C  0.32676909  0.51601212  0.75608743     0.02390
H544        H  0.33390809  0.47294333  0.73017780     0.10050
H545        H  0.33060591  0.53021286  0.76434514     0.09120
N546        N  0.25408657  0.46052617  0.72394710    -0.34710
N547        N  0.23523838  0.46803794  0.72858794    -0.26890
C548        C  0.22047546  0.45466520  0.72168056    -0.02130
C549        C  0.23061929  0.43803143  0.71214731     0.06480
C550        C  0.25186345  0.44234685  0.71380704     0.04570
H551        H  0.20367579  0.45706781  0.72324083     0.09680
H552        H  0.26480192  0.43286980  0.70820189     0.08510
N553        N  0.17931284  0.62923402  0.80782647    -0.25880
N554        N  0.19308937  0.62980633  0.82346366    -0.33740
C555        C  0.20755055  0.61476908  0.82078938     0.02460
C556        C  0.20267775  0.60391939  0.80276682     0.08490
C557        C  0.18461552  0.61345507  0.79485273    -0.04610
H558        H  0.22074395  0.61197150  0.83124186     0.09160
H559        H  0.17628153  0.60958689  0.78053047     0.10360
Cu560      Cu  0.19244161  0.65081223  0.84797842     0.44170
Cu561      Cu  0.15477011  0.65094440  0.80498762     0.41990
Cu562      Cu  0.15373595  0.69068207  0.84696474     0.43880
N563        N  0.19060086  0.67342485  0.87091025    -0.33260
N564        N  0.17656206  0.68862816  0.87035977    -0.27520
C565        C  0.17984450  0.70127430  0.88688215    -0.03620
C566        C  0.19675841  0.69349357  0.89841468     0.08600
C567        C  0.20308180  0.67580053  0.88784939     0.02390
H568        H  0.17052968  0.71499488  0.89022991     0.10050
H569        H  0.21606088  0.66559952  0.89195199     0.09120
N570        N  0.13215559  0.68896673  0.82240850    -0.34710
N571        N  0.13255281  0.67502968  0.80710075    -0.26890
C572        C  0.11626214  0.67882015  0.79395756    -0.02130
C573        C  0.10506603  0.69582886  0.80148044     0.06480
C574        C  0.11556973  0.70174684  0.81951662     0.04570
H575        H  0.11267232  0.66962358  0.78018682     0.09680
H576        H  0.11147725  0.71450666  0.82982347     0.08510
N577        N  0.26086622  0.26286396  0.47002390    -0.25880
N578        N  0.26701753  0.24558553  0.46052366    -0.33740
C579        C  0.27591133  0.25062555  0.44197356     0.02460
C580        C  0.27517151  0.27207790  0.43967860     0.08490
C581        C  0.26547754  0.27926814  0.45768994    -0.04610
H582        H  0.28206693  0.23943248  0.43086690     0.09160
H583        H  0.26211501  0.29531216  0.46162495     0.10360
Cu584      Cu  0.26235735  0.21575997  0.47259617     0.44170
Cu585      Cu  0.24681051  0.26392176  0.49947257     0.41990
Cu586      Cu  0.23824976  0.21403966  0.52377720     0.43880
N587        N  0.25455514  0.18811995  0.48791627    -0.33260
N588        N  0.24560494  0.18766403  0.50670140    -0.27520
C589        C  0.24236695  0.16776851  0.51244150    -0.03620
C590        C  0.24964938  0.15512899  0.49652284     0.08600
C591        C  0.25728206  0.16842879  0.48119081     0.02390
H592        H  0.23531804  0.16291175  0.52714537     0.10050
H593        H  0.26431700  0.16415111  0.46631802     0.09120
N594        N  0.23105463  0.24198125  0.53814590    -0.34710
N595        N  0.23399266  0.26038118  0.52929733    -0.26890
C596        C  0.22663528  0.27522359  0.54229102    -0.02130
C597        C  0.21860429  0.26557092  0.56011099     0.06480
C598        C  0.22175431  0.24456233  0.55693552     0.04570
H599        H  0.22651587  0.29168363  0.53864771     0.09680
H600        H  0.21704858  0.23199408  0.56726079     0.08510
N601        N  0.18702511  0.36781011  0.67422742    -0.25880
N602        N  0.17129977  0.36847991  0.68782757    -0.33740
C603        C  0.17407287  0.38484624  0.70068409     0.02460
C604        C  0.19253771  0.39479291  0.69504357     0.08490
C605        C  0.20035404  0.38355340  0.67818119    -0.04610
H606        H  0.16347515  0.38914028  0.71327001     0.09160
H607        H  0.21440752  0.38675167  0.66913660     0.10360
Cu608      Cu  0.14699311  0.34688826  0.68813057     0.44170
Cu609      Cu  0.18898381  0.34617102  0.65027332     0.41990
Cu610      Cu  0.14781668  0.30741585  0.64690619     0.43880
N611        N  0.12468363  0.32346763  0.68512732    -0.33260
N612        N  0.12471103  0.30944592  0.66993025    -0.27520
C613        C  0.10809165  0.29673822  0.67250764    -0.03620
C614        C  0.09723687  0.30285468  0.69028732     0.08600
C615        C  0.10818407  0.31988982  0.69789192     0.02390
H616        H  0.10446254  0.28367724  0.66243936     0.10050
H617        H  0.10450808  0.32907062  0.71165502     0.09120
N618        N  0.17294780  0.30916139  0.62605556    -0.34710
N619        N  0.18747527  0.32384254  0.62696431    -0.26890
C620        C  0.20108613  0.32133348  0.61098274    -0.02130
C621        C  0.19514521  0.30401114  0.59973199     0.06480
C622        C  0.17722637  0.29661276  0.60967337     0.04570
H623        H  0.21464871  0.33109062  0.60811890     0.09680
H624        H  0.16788622  0.28325641  0.60523480     0.08510
N625        N  0.26293526  0.47035090  0.26058782    -0.25880
N626        N  0.24570858  0.46078085  0.26716474    -0.33740
C627        C  0.25126688  0.44259702  0.27624511     0.02460
C628        C  0.27303300  0.44058182  0.27521892     0.08490
C629        C  0.27984006  0.45842486  0.26512728    -0.04610
H630        H  0.24019697  0.43151380  0.28267615     0.09160
H631        H  0.29593716  0.46245178  0.26133397     0.10360
Cu632      Cu  0.21525776  0.47233524  0.26259079     0.44170
Cu633      Cu  0.26293619  0.49910091  0.24546884     0.41990
Cu634      Cu  0.21188228  0.52061148  0.23319474     0.43880
N635        N  0.18686772  0.48685879  0.25464408    -0.33260
N636        N  0.18583988  0.50447356  0.24383680    -0.27520
C637        C  0.16551918  0.50978775  0.24097473    -0.03620
C638        C  0.15319169  0.49481794  0.25039733     0.08600
C639        C  0.16710698  0.48047702  0.25892558     0.02390
H640        H  0.16015966  0.52348892  0.23255035     0.10050
H641        H  0.16319926  0.46641953  0.26747206     0.09120
N642        N  0.23985905  0.53474037  0.22478621    -0.34710
N643        N  0.25864568  0.52719495  0.22970523    -0.26890
C644        C  0.27350999  0.54024319  0.22239895    -0.02130
C645        C  0.26349923  0.55670215  0.21229650     0.06480
C646        C  0.24221884  0.55263865  0.21405374     0.04570
H647        H  0.29029101  0.53769916  0.22403616     0.09680
H648        H  0.22936145  0.56207645  0.20809648     0.08510
N649        N  0.73540376  0.96837395  0.22760479    -0.25880
N650        N  0.75444921  0.96147288  0.22277641    -0.33740
C651        C  0.75278419  0.94351222  0.21215256     0.02460
C652        C  0.73170712  0.93862489  0.21029431     0.08490
C653        C  0.72105673  0.95473487  0.22028400    -0.04610
H654        H  0.76601391  0.93455246  0.20636111     0.09160
H655        H  0.70419348  0.95656712  0.22192431     0.10440
Cu656      Cu  0.78207241  0.97631290  0.23093885     0.44170
Cu657      Cu  0.73026698  0.99635574  0.24363918     0.41990
Cu658      Cu  0.77792871  0.02361792  0.26052546     0.43880
N659        N  0.80785987  0.99344486  0.24033103    -0.33260
N660        N  0.80644935  0.01087570  0.25123607    -0.27520
C661        C  0.82595237  0.01841526  0.25444909    -0.03620
C662        C  0.84011447  0.00502669  0.24505755     0.08600
C663        C  0.82824207  0.98936263  0.23631824     0.02390
H664        H  0.82949457  0.03259771  0.26286964     0.10050
H665        H  0.83393199  0.97604838  0.22759210     0.09120
N666        N  0.74758600  0.03415149  0.26631520    -0.34710
N667        N  0.73025392  0.02469310  0.25984937    -0.26890
C668        C  0.71345303  0.03632299  0.26543148    -0.02130
C669        C  0.72054712  0.05374582  0.27607390     0.06480
C670        C  0.74229059  0.05183035  0.27629479     0.04570
H671        H  0.69724672  0.03240566  0.26197970     0.09680
H672        H  0.75355031  0.06269178  0.28275404     0.08510
N673        N  0.46981918  0.73901938  0.23177580    -0.25880
N674        N  0.45991383  0.73232971  0.24880401    -0.33740
C675        C  0.44166549  0.72342402  0.24292608     0.02460
C676        C  0.43999081  0.72468669  0.22117103     0.08490
C677        C  0.45805814  0.73476015  0.21468924    -0.04610
H678        H  0.43043396  0.71669621  0.25375185     0.09160
H679        H  0.46252966  0.73840810  0.19867470     0.10360
Cu680      Cu  0.47135837  0.73584884  0.27940143     0.44170
Cu681      Cu  0.49915918  0.75304859  0.23215609     0.41990
Cu682      Cu  0.52227241  0.76053403  0.28323940     0.43880
N683        N  0.48629457  0.74230205  0.30791831    -0.33260
N684        N  0.50500573  0.75126369  0.30903082    -0.27520
C685        C  0.51040982  0.75373410  0.32931413    -0.03620
C686        C  0.49435049  0.74598969  0.34155976     0.08600
C687        C  0.47925870  0.73884081  0.32763370     0.02390
H688        H  0.52488011  0.76084085  0.33469576     0.10050
H689        H  0.46427108  0.73182929  0.33149631     0.09120
N690        N  0.53656168  0.76973265  0.25566964    -0.34710
N691        N  0.52828709  0.76672491  0.23683323    -0.26890
C692        C  0.54138931  0.77451903  0.22221252    -0.02130
C693        C  0.55864221  0.78294674  0.23246802     0.06480
C694        C  0.55502435  0.77969836  0.25362032     0.04570
H695        H  0.53829219  0.77444256  0.20546689     0.09680
H696        H  0.56505126  0.78425531  0.26659268     0.08510
N697        N  0.77087353  0.76158800  0.96722966    -0.25880
N698        N  0.77532996  0.74286307  0.95992793    -0.33740
C699        C  0.78645620  0.74468356  0.94205767     0.02460
C700        C  0.78898323  0.76555840  0.93775138     0.08490
C701        C  0.77891172  0.77589993  0.95403649    -0.04610
H702        H  0.79200243  0.73173050  0.93271429     0.09160
H703        H  0.77763691  0.79253592  0.95630018     0.10360
Cu704      Cu  0.76565270  0.71571297  0.97407414     0.44170
Cu705      Cu  0.75455498  0.76652085  0.99506191     0.41990
Cu706      Cu  0.73554827  0.71968545  0.02176362     0.43880
N707        N  0.75404590  0.69034068  0.99002226    -0.33260
N708        N  0.74290236  0.69155544  0.00754667    -0.27520
C709        C  0.73810977  0.67216656  0.01401879    -0.03620
C710        C  0.74668003  0.65835645  0.99976645     0.08600
C711        C  0.75664624  0.67028507  0.98480201     0.02390
H712        H  0.72928133  0.66845531  0.02808267     0.10050
H713        H  0.76532204  0.66484663  0.97123287     0.09120
N714        N  0.73207052  0.74968367  0.03333692    -0.34710
N715        N  0.73919437  0.76662313  0.02387490    -0.26890
C716        C  0.73517583  0.78322444  0.03610436    -0.02130
C717        C  0.72491747  0.77645701  0.05402121     0.06480
C718        C  0.72321039  0.75508453  0.05173301     0.04570
H719        H  0.73945181  0.79906924  0.03223991     0.09680
H720        H  0.71646590  0.74412254  0.06275860     0.08510
N721        N  0.67523744  0.80480345  0.12958492    -0.25880
N722        N  0.69064052  0.81856686  0.12839283    -0.33740
C723        C  0.70352427  0.81308602  0.11243294     0.02460
C724        C  0.69574720  0.79495218  0.10349116     0.08490
C725        C  0.67794875  0.79019077  0.11483895    -0.04610
H726        H  0.71759887  0.82144233  0.10795637     0.09160
H727        H  0.66756593  0.77706768  0.11247873     0.10360
Cu728      Cu  0.69306711  0.84354794  0.14934498     0.44170
Cu729      Cu  0.65077935  0.80584150  0.15063998     0.41990
Cu730      Cu  0.65075733  0.84535511  0.18918837     0.43880
N731        N  0.69030836  0.86633151  0.17272088    -0.33260
N732        N  0.67477909  0.86699107  0.18661599    -0.27520
C733        C  0.67720273  0.88375869  0.19895090    -0.03620
C734        C  0.69518905  0.89412520  0.19282506     0.08600
C735        C  0.70316812  0.88265894  0.17612417     0.02390
H736        H  0.66669058  0.88798770  0.21163561     0.10050
H737        H  0.71709002  0.88602556  0.16694309     0.09120
N738        N  0.62813990  0.82220949  0.18822255    -0.34710
N739        N  0.62792241  0.80795771  0.17332234    -0.26890
C740        C  0.61142954  0.79526306  0.17624522    -0.02130
C741        C  0.60089642  0.80163877  0.19405307     0.06480
C742        C  0.61186084  0.81881093  0.20131880     0.04570
H743        H  0.60769174  0.78206377  0.16639754     0.09680
H744        H  0.60825496  0.82820814  0.21495076     0.08510
N745        N  0.62648959  0.18459168  0.31710955    -0.25880
N746        N  0.62900544  0.16940531  0.30334812    -0.33740
C747        C  0.61441408  0.17142558  0.28808684     0.02460
C748        C  0.60199951  0.18857109  0.29252163     0.08490
C749        C  0.61009659  0.19656861  0.31107287    -0.04610
H750        H  0.61310087  0.16128663  0.27458672     0.09160
H751        H  0.60496681  0.21042746  0.31924642     0.10360
Cu752      Cu  0.65262094  0.14704352  0.30552623     0.44170
Cu753      Cu  0.64654113  0.18920157  0.34249308     0.41990
Cu754      Cu  0.69074875  0.15342791  0.34771473     0.43880
N755        N  0.67815448  0.12725042  0.31021573    -0.33260
N756        N  0.69232055  0.12979223  0.32528648    -0.27520
C757        C  0.70731256  0.11503986  0.32332443    -0.03620
C758        C  0.70224637  0.10250249  0.30638365     0.08600
C759        C  0.68363682  0.11072355  0.29843302     0.02390
H760        H  0.72098749  0.11360639  0.33342453     0.10050
H761        H  0.67497872  0.10549272  0.28477012     0.09120
N762        N  0.68567893  0.17872674  0.36763626    -0.34710
N763        N  0.66968622  0.19182557  0.36544254    -0.26890
C764        C  0.67140452  0.20699507  0.37986631    -0.02130
C765        C  0.68919633  0.20326240  0.39188265     0.06480
C766        C  0.69789079  0.18516325  0.38371673     0.04570
H767        H  0.66058386  0.21995677  0.38134694     0.09680
H768        H  0.71231754  0.17755399  0.38863441     0.08510
N769        N  0.97283071  0.76188552  0.76493369    -0.25880
N770        N  0.96343665  0.76877197  0.74763255    -0.33740
C771        C  0.94528646  0.77828130  0.75289467     0.02460
C772        C  0.94304113  0.77728797  0.77456167     0.08490
C773        C  0.96073296  0.76670381  0.78164682    -0.04610
H774        H  0.93441003  0.78506656  0.74166264     0.09160
H775        H  0.96457606  0.76285522  0.79779563     0.10360
Cu776      Cu  0.97493564  0.76454144  0.71735612     0.44170
Cu777      Cu  0.00171530  0.74623423  0.76514790     0.41990
Cu778      Cu  0.02251823  0.73438138  0.71363177     0.43880
N779        N  0.98934423  0.75748992  0.68893257    -0.33260
N780        N  0.00681448  0.74628012  0.68769425    -0.27520
C781        C  0.01237767  0.74438165  0.66738384    -0.03620
C782        C  0.99770917  0.75491084  0.65533885     0.08600
C783        C  0.98326922  0.76302134  0.66936878     0.02390
H784        H  0.02607413  0.73596364  0.66184760     0.10050
H785        H  0.96941159  0.77220116  0.66568289     0.09120
N786        N  0.03715370  0.72558775  0.74138824    -0.34710
N787        N  0.03004698  0.73035795  0.76032667    -0.26890
C788        C  0.04377480  0.72307707  0.77482757    -0.02130
C789        C  0.06018524  0.71315690  0.76440640     0.06480
C790        C  0.05536677  0.71500024  0.74328933     0.04570
H791        H  0.04179794  0.72470837  0.79164720     0.09680
H792        H  0.06460307  0.70931951  0.73019879     0.08510
N793        N  0.76674036  0.23785048  0.52629753    -0.25880
N794        N  0.77181966  0.25637076  0.53366850    -0.33740
C795        C  0.78207140  0.25402797  0.55203869     0.02460
C796        C  0.78332427  0.23305405  0.55659770     0.08490
C797        C  0.77345722  0.22317483  0.53993301    -0.04610
H798        H  0.78796198  0.26671075  0.56152028     0.09160
H799        H  0.77149267  0.20660757  0.53770325     0.10360
Cu800      Cu  0.76382942  0.28401762  0.51896322     0.44170
Cu801      Cu  0.75118952  0.23382847  0.49788011     0.41990
Cu802      Cu  0.73324147  0.28118825  0.47095412     0.43880
N803        N  0.75266643  0.30993657  0.50308929    -0.33260
N804        N  0.74135351  0.30914759  0.48559250    -0.27520
C805        C  0.73651965  0.32874703  0.47959174    -0.03620
C806        C  0.74519861  0.34229666  0.49407576     0.08600
C807        C  0.75531084  0.32990977  0.50870515     0.02390
H808        H  0.72741757  0.33279714  0.46575385     0.10050
H809        H  0.76395439  0.33499278  0.52244459     0.09120
N810        N  0.72847838  0.25104488  0.45961148    -0.34710
N811        N  0.73548538  0.23406222  0.46921535    -0.26890
C812        C  0.73063197  0.21733538  0.45753245    -0.02130
C813        C  0.71983227  0.22395269  0.43983684     0.06480
C814        C  0.71873836  0.24544967  0.44163417     0.04570
H815        H  0.73460390  0.20145256  0.46169326     0.09680
H816        H  0.71177183  0.25628030  0.43054541     0.08510
N817        N  0.02564878  0.26651653  0.73523517    -0.25880
N818        N  0.03361552  0.27216534  0.75359490    -0.33740
C819        C  0.05111666  0.28339434  0.75040904     0.02460
C820        C  0.05460521  0.28479081  0.72906269     0.08490
C821        C  0.03816540  0.27391104  0.71980242    -0.04610
H822        H  0.06078600  0.28984092  0.76281285     0.09160
H823        H  0.03537188  0.27167859  0.70316640     0.10360
Cu824      Cu  0.02146640  0.26413798  0.78253939     0.44170
Cu825      Cu  0.99793041  0.24925965  0.73241948     0.41990
Cu826      Cu  0.97660281  0.23166867  0.78300960     0.43880
N827        N  0.00785341  0.25371222  0.80999398    -0.33260
N828        N  0.99114057  0.24151850  0.81022306    -0.27520
C829        C  0.98580660  0.23746140  0.83028745    -0.03620
C830        C  0.99995816  0.24761725  0.84311032     0.08600
C831        C  0.01372711  0.25776523  0.82987686     0.02390
H832        H  0.97261262  0.22795134  0.83510876     0.10050
H833        H  0.02694474  0.26741702  0.83430396     0.09120
N834        N  0.96323166  0.22526046  0.75416618    -0.34710
N835        N  0.97031546  0.23192867  0.73576683    -0.26890
C836        C  0.95697411  0.22551985  0.72057836    -0.02130
C837        C  0.94093116  0.21422436  0.73002901     0.06480
C838        C  0.94549934  0.21433777  0.75121915     0.04570
H839        H  0.95893938  0.22870490  0.70397191     0.09680
H840        H  0.93639511  0.20725090  0.76370109     0.08510
N841        N  0.76463722  0.97444870  0.75986938    -0.25880
N842        N  0.74744155  0.96429514  0.76552569    -0.33740
C843        C  0.75307723  0.94598698  0.77418765     0.02460
C844        C  0.77487677  0.94452863  0.77383140     0.08490
C845        C  0.78165377  0.96278466  0.76458478    -0.04610
H846        H  0.74204787  0.93445636  0.77984137     0.09160
H847        H  0.79777370  0.96728033  0.76150219     0.10360
Cu848      Cu  0.71701623  0.97508387  0.76024215     0.44170
Cu849      Cu  0.76440823  0.00351781  0.74572170     0.41990
Cu850      Cu  0.71322654  0.02368331  0.73168120     0.43880
N851        N  0.68862230  0.98885693  0.75171852    -0.33260
N852        N  0.68735334  0.00659157  0.74115152    -0.27520
C853        C  0.66695655  0.01151406  0.73816956    -0.03620
C854        C  0.65491114  0.99613754  0.74727555     0.08600
C855        C  0.66900649  0.98198744  0.75573430     0.02390
H856        H  0.66136347  0.02535302  0.73013965     0.10050
H857        H  0.66533310  0.96786549  0.76428274     0.09120
N858        N  0.74111730  0.03886630  0.72499434    -0.34710
N859        N  0.75989112  0.03176445  0.73058130    -0.26890
C860        C  0.77468335  0.04534868  0.72423360    -0.02130
C861        C  0.76464857  0.06172496  0.71406962     0.06480
C862        C  0.74343085  0.05705493  0.71478102     0.04570
H863        H  0.79144669  0.04317672  0.72648301     0.09680
H864        H  0.73059220  0.06621674  0.70836292     0.08510
N865        N  0.80737254  0.17515124  0.62784083    -0.25880
N866        N  0.82141483  0.19029807  0.62782663    -0.33740
C867        C  0.81751985  0.20308170  0.61149602     0.02460
C868        C  0.80021706  0.19554591  0.60064186     0.08490
C869        C  0.79426151  0.17778063  0.61137310    -0.04610
H870        H  0.82683293  0.21665517  0.60772139     0.09160
H871        H  0.78122991  0.16761747  0.60761763     0.10360
Cu872      Cu  0.84563113  0.19271187  0.64953374     0.44170
Cu873      Cu  0.80652757  0.15193715  0.65048826     0.41990
Cu874      Cu  0.84784775  0.15291445  0.68993795     0.43880
N875        N  0.86879716  0.19135683  0.67246906    -0.33260
N876        N  0.86944628  0.17695794  0.68736754    -0.27520
C877        C  0.88612707  0.18053604  0.69989534    -0.03620
C878        C  0.89652922  0.19800882  0.69244454     0.08600
C879        C  0.88515004  0.20439007  0.67500961     0.02390
H880        H  0.89037997  0.17095987  0.71328273     0.10050
H881        H  0.88838592  0.21766302  0.66501440     0.09120
N882        N  0.82411472  0.13080204  0.68919756    -0.34710
N883        N  0.80885740  0.13074574  0.67499570    -0.26890
C884        C  0.79568607  0.11492459  0.67911903    -0.02130
C885        C  0.80306701  0.10445033  0.69674503     0.06480
C886        C  0.82116168  0.11485481  0.70264219     0.04570
H887        H  0.78191924  0.11127555  0.66979266     0.09680
H888        H  0.83129772  0.11125983  0.71588229     0.08510
N889        N  0.81123295  0.82340026  0.86669899    -0.25880
N890        N  0.82584387  0.80872822  0.86578731    -0.33740
C891        C  0.82318074  0.79567516  0.88221198     0.02460
C892        C  0.80616946  0.80276638  0.89393108     0.08490
C893        C  0.79910946  0.82034870  0.88368145    -0.04610
H894        H  0.83298974  0.78223163  0.88543467     0.09160
H895        H  0.78587974  0.83008080  0.88804538     0.10360
Cu896      Cu  0.84862450  0.80801552  0.84219708     0.44170
Cu897      Cu  0.80746046  0.84663620  0.84481287     0.41990
Cu898      Cu  0.84394890  0.85047630  0.80283239     0.43880
N899        N  0.86877481  0.81209312  0.81661534    -0.33260
N900        N  0.86679291  0.82714115  0.80243802    -0.27520
C901        C  0.88176045  0.82475600  0.78767677    -0.03620
C902        C  0.89389477  0.80759125  0.79280953     0.08600
C903        C  0.88523916  0.79990293  0.81127673     0.02390
H904        H  0.88361957  0.83478031  0.77409413     0.10050
H905        H  0.89017274  0.78621291  0.81995854     0.09120
N906        N  0.81880833  0.87103670  0.80635748    -0.34710
N907        N  0.80508098  0.86898459  0.82181453    -0.26890
C908        C  0.78993591  0.88347091  0.81983310    -0.02130
C909        C  0.79439967  0.89546938  0.80240364     0.06480
C910        C  0.81286139  0.88721429  0.79414190     0.04570
H911        H  0.77663300  0.88512098  0.83033410     0.09680
H912        H  0.82104105  0.89219214  0.78008769     0.08510
N913        N  0.36768620  0.67193509  0.19017819    -0.25880
N914        N  0.36859040  0.68721642  0.17621383    -0.33740
C915        C  0.38396676  0.70049122  0.18206642     0.02460
C916        C  0.39286978  0.69313053  0.20067213     0.08490
C917        C  0.38210714  0.67511240  0.20527688    -0.04610
H918        H  0.38792754  0.71465881  0.17373909     0.09160
H919        H  0.38445741  0.66506427  0.21878353     0.10360
Cu920      Cu  0.34771264  0.68926182  0.15073635     0.44170
Cu921      Cu  0.34673566  0.64750142  0.18922813     0.41990
Cu922      Cu  0.30782547  0.64755181  0.14917857     0.43880
N923        N  0.32425418  0.68649582  0.12769539    -0.33260
N924        N  0.31030485  0.67122350  0.12707816    -0.27520
C925        C  0.29769166  0.67388130  0.11024704    -0.03620
C926        C  0.30370818  0.69175706  0.09982126     0.08600
C927        C  0.32063701  0.69939225  0.11129989     0.02390
H928        H  0.28476928  0.66371704  0.10613738     0.10050
H929        H  0.32972332  0.71323936  0.10801361     0.09120
N930        N  0.30857394  0.62549453  0.17304509    -0.34710
N931        N  0.32349036  0.62522901  0.18755688    -0.26890
C932        C  0.32023157  0.60915799  0.20072140    -0.02130
C933        C  0.30222801  0.59892978  0.19434818     0.06480
C934        C  0.29519946  0.60968260  0.17669968     0.04570
H935        H  0.33003460  0.60543388  0.21417337     0.09680
H936        H  0.28154464  0.60624296  0.16712662     0.08510
N937        N  0.31738934  0.36672703  0.30758660    -0.25880
N938        N  0.30324569  0.36394913  0.32265069    -0.33740
C939        C  0.28805299  0.37846690  0.32072310     0.02460
C940        C  0.29280142  0.39117289  0.30383667     0.08490
C941        C  0.31155273  0.38331396  0.29583286    -0.04610
H942        H  0.27442851  0.37962533  0.33087005     0.09160
H943        H  0.32008035  0.38888468  0.28221792     0.10360
Cu944      Cu  0.30414992  0.34062573  0.34542504     0.44170
Cu945      Cu  0.34357985  0.34730900  0.30305876     0.41990
Cu946      Cu  0.34682542  0.30548883  0.34145486     0.43880
N947        N  0.30778303  0.31537778  0.36567172    -0.33260
N948        N  0.32352507  0.30205821  0.36364677    -0.27520
C949        C  0.32160499  0.28686514  0.37807369    -0.03620
C950        C  0.30391354  0.29090690  0.39000204     0.08600
C951        C  0.29545600  0.30914214  0.38172861     0.02390
H952        H  0.33239597  0.27389474  0.37982956     0.10050
H953        H  0.28125615  0.31707039  0.38668985     0.09120
N954        N  0.36878503  0.31027838  0.31818599    -0.34710
N955        N  0.36768328  0.32496225  0.30358579    -0.26890
C956        C  0.38423223  0.32267338  0.29044614    -0.02130
C957        C  0.39622542  0.30586042  0.29741798     0.06480
C958        C  0.38599126  0.29854348  0.31501379     0.04570
H959        H  0.38734575  0.33256723  0.27700439     0.09680
H960        H  0.39049660  0.28533204  0.32464522     0.08510
C961        C  0.77400904  0.08006461  0.70375367    -0.15020
C962        C  0.79398301  0.08601968  0.70720425    -0.30200
H963        H  0.76388202  0.08921868  0.69348004     0.14000
H964        H  0.80376086  0.07760913  0.71842272     0.14580
C965        C  0.78836968  0.92719069  0.78112088    -0.15020
C966        C  0.78118327  0.91269134  0.79449726    -0.30200
H967        H  0.80468281  0.92681816  0.77599857     0.14000
H968        H  0.76527229  0.91387896  0.80064957     0.14580
C969        C  0.92257724  0.20384459  0.72051949    -0.15020
C970        C  0.91557647  0.20808604  0.70103628    -0.30200
H971        H  0.91397903  0.19302773  0.73043584     0.14000
H972        H  0.92340310  0.21978424  0.69149988     0.14580
C973        C  0.79350426  0.22388883  0.57533210    -0.15020
C974        C  0.79010574  0.20422149  0.58159417    -0.30200
H975        H  0.80349908  0.23399828  0.58464982     0.14000
H976        H  0.77912291  0.19445473  0.57303455     0.14580
C977        C  0.92548247  0.78527151  0.78760622    -0.15020
C978        C  0.91153857  0.79928552  0.78016174    -0.30200
H979        H  0.92441241  0.77993425  0.80379828     0.14000
H980        H  0.91337496  0.80546079  0.76435091     0.14580
C981        C  0.71195620  0.21044493  0.42274117    -0.15020
C982        C  0.69726382  0.21679779  0.40887065    -0.30200
H983        H  0.71792394  0.19460013  0.42207623     0.14000
H984        H  0.69039907  0.23223142  0.41032074     0.14580
C985        C  0.71776784  0.78950635  0.07176618    -0.15020
C986        C  0.70402801  0.78231419  0.08603576    -0.30200
H987        H  0.72325891  0.80547436  0.07261519     0.14000
H988        H  0.69762841  0.76675045  0.08437715     0.14580
C989        C  0.79984645  0.77434644  0.91928465    -0.15020
C990        C  0.79675082  0.79407933  0.91317952    -0.30200
H991        H  0.80961567  0.76403952  0.90990383     0.14000
H992        H  0.78591220  0.80396098  0.92183150     0.14580
C993        C  0.57692827  0.79370762  0.22334017    -0.15020
C994        C  0.58214633  0.79160643  0.20303769    -0.30200
H995        H  0.58681488  0.80279846  0.23379866     0.14000
H996        H  0.57313224  0.78133617  0.19292525     0.14580
C997        C  0.42299601  0.71677749  0.20739460    -0.15020
C998        C  0.40944799  0.70221940  0.21409837    -0.30200
H999        H  0.42229356  0.72227499  0.19122708     0.14000
H1000       H  0.41109739  0.69585713  0.22986921     0.14580
C1001       C  0.70745576  0.07097519  0.28443217    -0.15020
C1002       C  0.71501287  0.08496105  0.29823539    -0.30200
H1003       H  0.69112570  0.07186976  0.27938569     0.14000
H1004       H  0.73099113  0.08335682  0.30416305     0.14580
C1005       C  0.70337431  0.91337116  0.20254340    -0.15020
C1006       C  0.72321015  0.91998294  0.19967314    -0.30200
H1007       H  0.69300535  0.92174506  0.21315942     0.14000
H1008       H  0.73394899  0.91095208  0.19000808     0.14580
C1009       C  0.28652472  0.42311511  0.28253640    -0.15020
C1010       C  0.27955006  0.40861039  0.29610364    -0.30200
H1011       H  0.30273315  0.42260130  0.27711116     0.14000
H1012       H  0.26369927  0.40982784  0.30239269     0.14580
C1013       C  0.29298171  0.58050840  0.20467068    -0.15020
C1014       C  0.27291843  0.57476277  0.20147098    -0.30200
H1015       H  0.30272414  0.57203974  0.21587650     0.14000
H1016       H  0.26278368  0.58400521  0.19127767     0.14580
C1017       C  0.07844502  0.29259946  0.69925348    -0.15020
C1018       C  0.07243815  0.29579294  0.71922071    -0.30200
H1019       H  0.07010591  0.28141248  0.68957515     0.14000
H1020       H  0.08158302  0.30604372  0.72923171     0.14580
C1021       C  0.28251035  0.28502009  0.42190384    -0.15020
C1022       C  0.29608162  0.27784750  0.40744989    -0.30200
H1023       H  0.27720443  0.30109535  0.42121213     0.14000
H1024       H  0.30241572  0.26218221  0.40888576     0.14580
C1025       C  0.20725319  0.27479985  0.57807656    -0.15020
C1026       C  0.20624756  0.29536577  0.58137419    -0.30200
H1027       H  0.19980232  0.26424761  0.58917583     0.14000
H1028       H  0.21480245  0.30601803  0.57124549     0.14580
C1029       C  0.07902248  0.70260996  0.77318629    -0.15020
C1030       C  0.08576926  0.70576426  0.79295266    -0.30200
H1031       H  0.08806792  0.69269563  0.76272177     0.14000
H1032       H  0.07741554  0.71663297  0.80301714     0.14580
C1033       C  0.20805673  0.57288126  0.78009704    -0.15020
C1034       C  0.21538798  0.58661173  0.79418655    -0.30200
H1035       H  0.19187072  0.57399492  0.77462591     0.14000
H1036       H  0.23114039  0.58461016  0.80059065     0.14580
C1037       C  0.22144003  0.41953810  0.70192975    -0.15020
C1038       C  0.20137154  0.41363666  0.70494663    -0.30200
H1039       H  0.23183685  0.41010003  0.69229420     0.14000
H1040       H  0.19130529  0.42238166  0.71554128     0.14580
C1041       C  0.29631825  0.72035955  0.07481385    -0.15020
C1042       C  0.29340317  0.70056268  0.08084971    -0.30200
H1043       H  0.30650000  0.73037744  0.08403544     0.14000
H1044       H  0.28232962  0.69083023  0.07236411     0.14580
C1045       C  0.20323276  0.72160776  0.92394443    -0.15020
C1046       C  0.20668213  0.70200290  0.91761669    -0.30200
H1047       H  0.19296675  0.73170239  0.91476358     0.14000
H1048       H  0.21785379  0.69223404  0.92607423     0.14580
C1049       C  0.57093798  0.21117343  0.28599492    -0.15020
C1050       C  0.58480801  0.19686996  0.27915818    -0.30200
H1051       H  0.57166812  0.21657641  0.30215148     0.14000
H1052       H  0.58334562  0.19064437  0.26336220     0.14580
C1053       C  0.41566628  0.29670594  0.28867266    -0.15020
C1054       C  0.42189651  0.29977297  0.26875673    -0.30200
H1055       H  0.42434793  0.28596556  0.29869787     0.14000
H1056       H  0.41252794  0.30949740  0.25829076     0.14580
C1057       C  0.49366290  0.74592881  0.36417869    -0.11860
C1058       C  0.49421960  0.74638541  0.38315312    -0.13420
C1059       C  0.53446670  0.67107361  0.53423779    -0.15020
C1060       C  0.54935059  0.65780753  0.52747707    -0.30200
H1061       H  0.52829620  0.66957518  0.55009293     0.14000
H1062       H  0.55643512  0.66000390  0.51208803     0.14580
C1063       C  0.45889337  0.82252126  0.53480062    -0.15020
C1064       C  0.44612628  0.83752434  0.52735869    -0.30200
H1065       H  0.46358006  0.82258018  0.55124464     0.14000
H1066       H  0.44030893  0.83679480  0.51129688     0.14580
C1067       C  0.24954840  0.13271768  0.49629533    -0.11860
C1068       C  0.24935615  0.11392632  0.49665977    -0.13420
C1069       C  0.15764421  0.97013478  0.45017371    -0.15020
C1070       C  0.17177075  0.96337852  0.46429590    -0.30200
H1071       H  0.15909948  0.98561708  0.44342023     0.14000
H1072       H  0.17120822  0.94740152  0.46991185     0.14580
C1073       C  0.32497668  0.96319713  0.53591470    -0.15020
C1074       C  0.33855764  0.96951214  0.55070286    -0.30200
H1075       H  0.32578446  0.94736974  0.53001719     0.14000
H1076       H  0.33696607  0.98487426  0.55761744     0.14580
C1077       C  0.86262977  0.00676933  0.24452568    -0.11860
C1078       C  0.88159715  0.00716194  0.24426137    -0.13420
C1079       C  0.04140530  0.95167397  0.32990951    -0.15020
C1080       C  0.02111286  0.94992400  0.32440626    -0.30200
H1081       H  0.05172374  0.96188882  0.32103938     0.14000
H1082       H  0.01045435  0.94071070  0.33397940     0.14580
C1083       C  0.03086194  0.04759892  0.15901094    -0.15020
C1084       C  0.03807484  0.03472999  0.17408583    -0.30200
H1085       H  0.01480894  0.05343372  0.15975543     0.14000
H1086       H  0.05445111  0.02977882  0.17402428     0.14580
C1087       C  0.00075726  0.24824023  0.88453740    -0.11860
C1088       C  0.00024570  0.24782895  0.86562777    -0.13420
C1089       C  0.03393234  0.17206809  0.03586016    -0.15020
C1090       C  0.04881819  0.15888990  0.02917952    -0.30200
H1091       H  0.02762757  0.17066382  0.05167819     0.14000
H1092       H  0.05622489  0.16120965  0.01395682     0.14580
C1093       C  0.96588112  0.32612089  0.03440249    -0.15020
C1094       C  0.95153330  0.33951425  0.02687593    -0.30200
H1095       H  0.97102598  0.32709901  0.05067896     0.14000
H1096       H  0.94521521  0.33762375  0.01110258     0.14580
C1097       C  0.13051248  0.49430319  0.25075194    -0.11860
C1098       C  0.11148293  0.49460501  0.25046746    -0.13420
C1099       C  0.96013598  0.46529357  0.16874459    -0.15020
C1100       C  0.96709390  0.45096144  0.15513449    -0.30200
H1101       H  0.94402233  0.47093169  0.16767116     0.14000
H1102       H  0.98282736  0.44448617  0.15690919     0.14580
C1103       C  0.36336678  0.50283029  0.74737962    -0.11860
C1104       C  0.38237938  0.50265868  0.74715808    -0.13420
C1105       C  0.52518383  0.45119321  0.82676037    -0.15020
C1106       C  0.54506631  0.45464673  0.83308887    -0.30200
H1107       H  0.51505335  0.44107487  0.83595734     0.14000
H1108       H  0.55481488  0.46566041  0.82455323     0.14580
C1109       C  0.53663459  0.53458884  0.67420534    -0.15020
C1110       C  0.52918198  0.54797355  0.65965440    -0.30200
H1111       H  0.55292263  0.52942184  0.67349570     0.14000
H1112       H  0.51325379  0.55403159  0.66101532     0.14580
C1113       C  0.50527374  0.24704886  0.12928072    -0.11860
C1114       C  0.50532835  0.24707241  0.11030593    -0.13420
C1115       C  0.44831634  0.15836300  0.96846223    -0.15020
C1116       C  0.46201099  0.17226111  0.96071305    -0.30200
H1117       H  0.44287787  0.15958988  0.98460456     0.14000
H1118       H  0.46646380  0.17171026  0.94423808     0.14580
C1119       C  0.53369690  0.32497599  0.95769520    -0.15020
C1120       C  0.54804209  0.33852432  0.96473783    -0.30200
H1121       H  0.52808907  0.32600515  0.94156529     0.14000
H1122       H  0.55469732  0.33657367  0.98038138     0.14580
C1123       C  0.99746650  0.75657345  0.63277948    -0.11860
C1124       C  0.99761894  0.75700311  0.61380496    -0.13420
C1125       C  0.03281680  0.82544763  0.45825866    -0.15020
C1126       C  0.04658034  0.83959516  0.46545028    -0.30200
H1127       H  0.02754317  0.82611131  0.44200516     0.14000
H1128       H  0.05271903  0.83819919  0.48135285     0.14580
C1129       C  0.96615866  0.54714189  0.33808967    -0.15020
C1130       C  0.95876311  0.53401442  0.32355132    -0.30200
H1131       H  0.98218685  0.55289904  0.33690197     0.14000
H1132       H  0.94230129  0.52944143  0.32381004     0.14580
C1133       C  0.95233527  0.66958031  0.45216601    -0.15020
C1134       C  0.94974956  0.67514833  0.47231760    -0.30200
H1135       H  0.96311072  0.67819136  0.44216766     0.14000
H1136       H  0.94000760  0.66576799  0.48266981     0.14580
C1137       C  0.74438991  0.38350410  0.49456005    -0.11860
C1138       C  0.74430603  0.36471026  0.49403853    -0.13420
C1139       C  0.83244050  0.54541719  0.45241073    -0.15020
C1140       C  0.82681176  0.52553133  0.44934272    -0.30200
H1141       H  0.82350999  0.55505432  0.46322688     0.14000
H1142       H  0.83642264  0.51556526  0.43944852     0.14580
C1143       C  0.67555535  0.53618518  0.53480584    -0.15020
C1144       C  0.66145497  0.52891977  0.54875810    -0.30200
H1145       H  0.67475568  0.55230272  0.52966263     0.14000
H1146       H  0.66294205  0.51315044  0.55478790     0.14580
C1147       C  0.74661262  0.61738638  0.99982180    -0.11860
C1148       C  0.74613014  0.63608781  0.00039990    -0.13420
C1149       C  0.67707942  0.47221981  0.94908270    -0.15020
C1150       C  0.67159862  0.45232500  0.95216152    -0.30200
H1151       H  0.66757475  0.48209143  0.93889492     0.14000
H1152       H  0.68036182  0.44272315  0.96324108     0.14580
C1153       C  0.82486215  0.47438233  0.04565430    -0.15020
C1154       C  0.82959138  0.45413605  0.04421741    -0.30200
H1155       H  0.83478748  0.48459337  0.05494504     0.14000
H1156       H  0.82040071  0.44415493  0.03397319     0.14580
C1157       C  0.63232008  0.99547134  0.74817951    -0.11860
C1158       C  0.61333560  0.99560103  0.74866346    -0.13420
C1159       C  0.46131465  0.95893898  0.67411853    -0.15020
C1160       C  0.46864630  0.94498785  0.66026466    -0.30200
H1161       H  0.44495858  0.96390445  0.67345528     0.14000
H1162       H  0.48464699  0.93910017  0.66162522     0.14580
C1163       C  0.46188329  0.03631588  0.82443076    -0.15020
C1164       C  0.46828045  0.05123247  0.83763219    -0.30200
H1165       H  0.44598906  0.03022290  0.82559615     0.14000
H1166       H  0.48366251  0.05832556  0.83562807     0.14580
C1167       C  0.25460246  0.88360777  0.99649576    -0.11860
C1168       C  0.25430473  0.86489031  0.99673126    -0.13420
C1169       C  0.32215858  0.03722215  0.96176884    -0.15020
C1170       C  0.33617543  0.03011212  0.94768531    -0.30200
H1171       H  0.32290376  0.05324404  0.96709744     0.14000
H1172       H  0.33471235  0.01446423  0.94146066     0.14580
C1173       C  0.17280819  0.02215306  0.04947442    -0.15020
C1174       C  0.16767562  0.04229765  0.04772013    -0.30200
H1175       H  0.16296504  0.01170750  0.05861288     0.14000
H1176       H  0.17685174  0.05245579  0.03761151     0.14580
loop_ 
_geom_bond_atom_site_label_1 
_geom_bond_atom_site_label_2 
_geom_bond_distance 
_geom_bond_site_symmetry_2 
_ccdc_geom_bond_type 
N1            N2   1.321   1_545  A
N1            C5   1.344       .  A
N1           Cu9   2.074       .  S
N2            C3   1.343       .  A
N2           Cu8   2.057       .  S
C3            C4   1.378   1_565  A
C3            H6   1.082       .  S
C4            C5   1.387       .  A
C4         C1173   1.473       .  S
C5            H7   1.082       .  S
Cu8          N11   2.058       .  S
Cu9          N19   2.074   1_554  S
Cu10         N12   2.071       .  S
Cu10         N18   2.071       .  S
N11          N12   1.322   1_554  A
N11          C15   1.342       .  A
N12          C13   1.346       .  A
C13          C14   1.380       .  A
C13          H16   1.081       .  S
C14          C15   1.376   1_556  A
C14        C1167   1.432       .  S
C15          H17   1.082       .  S
N18          N19   1.323   1_565  A
N18          C22   1.344   1_565  A
N19          C20   1.345       .  A
C20          C21   1.381       .  A
C20          H23   1.083       .  S
C21          C22   1.384       .  A
C21        C1169   1.474       .  S
C22          H24   1.081   1_545  S
N25          N26   1.321       .  A
N25          C29   1.340       .  A
N25         Cu33   2.053   1_545  S
N26          C27   1.348       .  A
N26         Cu32   2.080       .  S
C27          C28   1.388       .  A
C27          H30   1.082       .  S
C28          C29   1.376       .  A
C28        C1163   1.471       .  S
C29          H31   1.082       .  S
Cu32         N35   2.081       .  S
Cu33         N43   2.053       .  S
Cu34         N36   2.072       .  S
Cu34         N42   2.071       .  S
N35          N36   1.325   1_545  A
N35          C39   1.346       .  A
N36          C37   1.345       .  A
C37          C38   1.377       .  A
C37          H40   1.082       .  S
C38          C39   1.379   1_565  A
C38        C1158   1.435       .  S
C39          H41   1.082       .  S
N42          N43   1.320       .  A
N42          C46   1.346       .  A
N43          C44   1.341       .  A
C44          C45   1.378       .  A
C44          H47   1.082       .  S
C45          C46   1.386       .  A
C45        C1159   1.470       .  S
C46          H48   1.081       .  S
N49          N50   1.323       .  A
N49          C53   1.348       .  A
N49         Cu57   2.087       .  S
N50          C51   1.341       .  A
N50         Cu56   2.061       .  S
C51          C52   1.377       .  A
C51          H54   1.082       .  S
C52          C53   1.388       .  A
C52        C1149   1.474       .  S
C53          H55   1.082       .  S
Cu56         N59   2.061       .  S
Cu57         N67   2.088   1_556  S
Cu58         N60   2.058       .  S
Cu58         N66   2.058       .  S
N59          N60   1.320   1_556  A
N59          C63   1.344       .  A
N60          C61   1.344       .  A
C61          C62   1.378   1_554  A
C61          H64   1.082       .  S
C62          C63   1.379       .  A
C62        C1147   1.432       .  S
C63          H65   1.081       .  S
N66          N67   1.323       .  A
N66          C70   1.342       .  A
N67          C68   1.347       .  A
C68          C69   1.389       .  A
C68          H71   1.082       .  S
C69          C70   1.376       .  A
C69        C1153   1.474       .  S
C70          H72   1.082       .  S
N73          N74   1.322       .  A
N73          C77   1.347       .  A
N73         Cu81   2.079       .  S
N74          C75   1.344       .  A
N74         Cu80   2.074       .  S
C75          C76   1.381       .  A
C75          H78   1.082       .  S
C76          C77   1.387       .  A
C76        C1140   1.479       .  S
C77          H79   1.082       .  S
Cu80         N83   2.074       .  S
Cu81         N91   2.079       .  S
Cu82         N84   2.083       .  S
Cu82         N90   2.082       .  S
N83          N84   1.323       .  A
N83          C87   1.345       .  A
N84          C85   1.348       .  A
C85          C86   1.382       .  A
C85          H88   1.081       .  S
C86          C87   1.379       .  A
C86        C1137   1.441       .  S
C87          H89   1.082       .  S
N90          N91   1.323       .  A
N90          C94   1.346       .  A
N91          C92   1.345       .  A
C92          C93   1.382       .  A
C92          H95   1.082       .  S
C93          C94   1.386       .  A
C93        C1143   1.478       .  S
C94          H96   1.081       .  S
N97          N98   1.320       .  A
N97         C101   1.347       .  A
N97        Cu105   2.078       .  S
N98          C99   1.342       .  A
N98        Cu104   2.054       .  S
C99         C100   1.379       .  A
C99         H102   1.082       .  S
C100        C101   1.388       .  A
C100       C1133   1.474       .  S
C101        H103   1.081       .  S
Cu104       N107   2.054       .  S
Cu105       N115   2.079       .  S
Cu106       N108   2.087       .  S
Cu106       N114   2.088       .  S
N107        N108   1.322       .  A
N107        C111   1.341       .  A
N108        C109   1.348       .  A
C109        C110   1.389       .  A
C109        H112   1.082       .  S
C110        C111   1.376       .  A
C110       C1129   1.473       .  S
C111        H113   1.082       .  S
N114        N115   1.325       .  A
N114        C118   1.347       .  A
N115        C116   1.345       .  A
C116        C117   1.380       .  A
C116        H119   1.082       .  S
C117        C118   1.387       .  A
C117       C1139   1.479       .  S
C118        H120   1.082       .  S
N121        N122   1.323       .  A
N121        C125   1.346       .  A
N121       Cu129   2.080   1_455  S
N122        C123   1.346       .  A
N122       Cu128   2.081       .  S
C123        C124   1.387       .  A
C123        H126   1.082       .  S
C124        C125   1.382       .  A
C124       C1125   1.480       .  S
C125        H127   1.082       .  S
Cu128       N131   2.081       .  S
Cu129       N139   2.079       .  S
Cu130       N132   2.064       .  S
Cu130       N138   2.064       .  S
N131        N132   1.323   1_455  A
N131        C135   1.347       .  A
N132        C133   1.343       .  A
C133        C134   1.377       .  A
C133        H136   1.082       .  S
C134        C135   1.382   1_655  A
C134       C1124   1.437       .  S
C135        H137   1.082       .  S
N138        N139   1.322       .  A
N138        C142   1.344       .  A
N139        C140   1.346       .  A
C140        C141   1.387       .  A
C140        H143   1.081       .  S
C141        C142   1.380       .  A
C141       C1134   1.475       .  S
C142        H144   1.082       .  S
N145        N146   1.321       .  A
N145        C149   1.343       .  A
N145       Cu153   2.058       .  S
N146        C147   1.346       .  A
N146       Cu152   2.080   1_556  S
C147        C148   1.388       .  A
C147        H150   1.082   1_556  S
C148        C149   1.379       .  A
C148       C1119   1.475       .  S
C149        H151   1.082       .  S
Cu152       N155   2.081       .  S
Cu153       N163   2.058       .  S
Cu154       N156   2.074       .  S
Cu154       N162   2.074   1_554  S
N155        N156   1.325       .  A
N155        C159   1.346       .  A
N156        C157   1.345       .  A
C157        C158   1.378       .  A
C157        H160   1.082       .  S
C158        C159   1.380       .  A
C158       C1114   1.436       .  S
C159        H161   1.082       .  S
N162        N163   1.321       .  A
N162        C166   1.346       .  A
N163        C164   1.341       .  A
C164        C165   1.378       .  A
C164        H167   1.082       .  S
C165        C166   1.386       .  A
C165       C1116   1.471       .  S
C166        H168   1.082   1_556  S
N169        N170   1.321       .  A
N169        C173   1.345       .  A
N169       Cu177   2.068       .  S
N170        C171   1.342       .  A
N170       Cu176   2.064       .  S
C171        C172   1.385       .  A
C171        H174   1.081       .  S
C172        C173   1.382       .  A
C172       C1115   1.474       .  S
C173        H175   1.081       .  S
Cu176       N179   2.064       .  S
Cu177       N187   2.068       .  S
Cu178       N180   2.072       .  S
Cu178       N186   2.072       .  S
N179        N180   1.322       .  A
N179        C183   1.344       .  A
N180        C181   1.344       .  A
C181        C182   1.386       .  A
C181        H184   1.082       .  S
C182        C183   1.380       .  A
C182       C1164   1.475       .  S
C183        H185   1.082       .  S
N186        N187   1.322       .  A
N186        C190   1.345       .  A
N187        C188   1.344       .  A
C188        C189   1.384       .  A
C188        H191   1.082       .  S
C189        C190   1.381       .  A
C189       C1170   1.474       .  S
C190        H192   1.082       .  S
N193        N194   1.323       .  A
N193        C197   1.346       .  A
N193       Cu201   2.085       .  S
N194        C195   1.346       .  A
N194       Cu200   2.078       .  S
C195        C196   1.386       .  A
C195        H198   1.081       .  S
C196        C197   1.383       .  A
C196       C1109   1.480       .  S
C197        H199   1.081       .  S
Cu200       N203   2.078       .  S
Cu201       N211   2.084       .  S
Cu202       N204   2.068       .  S
Cu202       N210   2.068       .  S
N203        N204   1.323       .  A
N203        C207   1.347       .  A
N204        C205   1.344       .  A
C205        C206   1.378       .  A
C205        H208   1.082       .  S
C206        C207   1.381       .  A
C206       C1104   1.437       .  S
C207        H209   1.082       .  S
N210        N211   1.322       .  A
N210        C214   1.344       .  A
N211        C212   1.348       .  A
C212        C213   1.389       .  A
C212        H215   1.081       .  S
C213        C214   1.380       .  A
C213       C1105   1.479       .  S
C214        H216   1.082       .  S
N217        N218   1.321       .  A
N217        C221   1.342       .  A
N217       Cu225   2.055       .  S
N218        C219   1.348       .  A
N218       Cu224   2.084   1_655  S
C219        C220   1.389       .  A
C219        H222   1.081   1_655  S
C220        C221   1.377       .  A
C220       C1099   1.475       .  S
C221        H223   1.081       .  S
Cu224       N227   2.084       .  S
Cu225       N235   2.055       .  S
Cu226       N228   2.081       .  S
Cu226       N234   2.080   1_455  S
N227        N228   1.325       .  A
N227        C231   1.347       .  A
N228        C229   1.346       .  A
C229        C230   1.379       .  A
C229        H232   1.082       .  S
C230        C231   1.380       .  A
C230       C1098   1.439       .  S
C231        H233   1.082       .  S
N234        N235   1.321       .  A
N234        C238   1.346       .  A
N235        C236   1.342       .  A
C236        C237   1.378       .  A
C236        H239   1.082       .  S
C237        C238   1.388       .  A
C237       C1130   1.474       .  S
C238        H240   1.082   1_655  S
N241        N242   1.322       .  A
N241        C245   1.340       .  A
N241       Cu249   2.046       .  S
N242        C243   1.348       .  A
N242       Cu248   2.091       .  S
C243        C244   1.390       .  A
C243        H246   1.082       .  S
C244        C245   1.374       .  A
C244       C1154   1.472       .  S
C245        H247   1.082       .  S
Cu248       N251   2.091       .  S
Cu249       N259   2.046       .  S
Cu250       N252   2.063       .  S
Cu250       N258   2.062       .  S
N251        N252   1.324       .  A
N251        C255   1.347       .  A
N252        C253   1.343       .  A
C253        C254   1.377       .  A
C253        H256   1.082       .  S
C254        C255   1.389       .  A
C254       C1100   1.476       .  S
C255        H257   1.082       .  S
N258        N259   1.319       .  A
N258        C262   1.342       .  A
N259        C260   1.341       .  A
C260        C261   1.377       .  A
C260        H263   1.082       .  S
C261        C262   1.385       .  A
C261       C1094   1.467       .  S
C262        H264   1.081       .  S
N265        N266   1.320   1_554  A
N265        C269   1.340       .  A
N265       Cu273   2.046       .  S
N266        C267   1.344   1_556  A
N266       Cu272   2.068       .  S
C267        C268   1.386       .  A
C267        H270   1.082   1_554  S
C268        C269   1.376       .  A
C268       C1089   1.467       .  S
C269        H271   1.082       .  S
Cu272       N275   2.069       .  S
Cu273       N283   2.046   1_455  S
Cu274       N276   2.069       .  S
Cu274       N282   2.068       .  S
N275        N276   1.324   1_455  A
N275        C279   1.344       .  A
N276        C277   1.344       .  A
C277        C278   1.377   1_655  A
C277        H280   1.082       .  S
C278        C279   1.377       .  A
C278       C1087   1.431       .  S
C279        H281   1.082       .  S
N282        N283   1.320   1_556  A
N282        C286   1.344   1_556  A
N283        C284   1.340       .  A
C284        C285   1.376       .  A
C284        H287   1.082       .  S
C285        C286   1.385       .  A
C285       C1093   1.466       .  S
C286        H288   1.082   1_554  S
N289        N290   1.319       .  A
N289        C293   1.344       .  A
N289       Cu297   2.066       .  S
N290        C291   1.341       .  A
N290       Cu296   2.042       .  S
C291        C292   1.376       .  A
C291        H294   1.082       .  S
C292        C293   1.386       .  A
C292       C1090   1.467       .  S
C293        H295   1.081       .  S
Cu296       N299   2.043       .  S
Cu297       N307   2.068       .  S
Cu298       N300   2.088       .  S
Cu298       N306   2.089       .  S
N299        N300   1.322       .  A
N299        C303   1.339       .  A
N300        C301   1.348       .  A
C301        C302   1.389       .  A
C301        H304   1.082       .  S
C302        C303   1.374       .  A
C302       C1174   1.470       .  S
C303        H305   1.082       .  S
N306        N307   1.324       .  A
N306        C310   1.348       .  A
N307        C308   1.342       .  A
C308        C309   1.378       .  A
C308        H311   1.082       .  S
C309        C310   1.387       .  A
C309       C1083   1.475       .  S
C310        H312   1.082       .  S
N313        N314   1.321   1_455  A
N313        C317   1.344       .  A
N313       Cu321   2.076       .  S
N314        C315   1.343       .  A
N314       Cu320   2.056       .  S
C315        C316   1.379   1_655  A
C315        H318   1.082       .  S
C316        C317   1.388       .  A
C316       C1080   1.475       .  S
C317        H319   1.081       .  S
Cu320       N323   2.057       .  S
Cu321       N331   2.076   1_565  S
Cu322       N324   2.076       .  S
Cu322       N330   2.077       .  S
N323        N324   1.322   1_565  A
N323        C327   1.342       .  A
N324        C325   1.347       .  A
C325        C326   1.381       .  A
C325        H328   1.082       .  S
C326        C327   1.375   1_545  A
C326       C1078   1.433       .  S
C327        H329   1.082       .  S
N330        N331   1.323   1_655  A
N330        C334   1.345   1_655  A
N331        C332   1.346       .  A
C332        C333   1.382       .  A
C332        H335   1.081       .  S
C333        C334   1.386       .  A
C333       C1084   1.478       .  S
C334        H336   1.081   1_455  S
N337        N338   1.320   1_565  A
N337        C341   1.340       .  A
N337       Cu345   2.044       .  S
N338        C339   1.347   1_545  A
N338       Cu344   2.082       .  S
C339        C340   1.389       .  A
C339        H342   1.081   1_565  S
C340        C341   1.375       .  A
C340       C1070   1.470       .  S
C341        H343   1.082       .  S
Cu344       N347   2.084       .  S
Cu345       N355   2.044       .  S
Cu346       N348   2.084       .  S
Cu346       N354   2.082       .  S
N347        N348   1.325       .  A
N347        C351   1.347       .  A
N348        C349   1.347       .  A
C349        C350   1.380       .  A
C349        H352   1.082       .  S
C350        C351   1.380       .  A
C350       C1068   1.441       .  S
C351        H353   1.082       .  S
N354        N355   1.321   1_545  A
N354        C358   1.347   1_545  A
N355        C356   1.339       .  A
C356        C357   1.375       .  A
C356        H359   1.083       .  S
C357        C358   1.388       .  A
C357       C1073   1.469       .  S
C358        H360   1.082   1_565  S
N361        N362   1.322       .  A
N361        C365   1.339       .  A
N361       Cu369   2.044       .  S
N362        C363   1.349       .  A
N362       Cu368   2.090       .  S
C363        C364   1.390       .  A
C363        H366   1.082       .  S
C364        C365   1.374       .  A
C364       C1079   1.471       .  S
C365        H367   1.082       .  S
Cu368       N371   2.091       .  S
Cu369       N379   2.044       .  S
Cu370       N372   2.078       .  S
Cu370       N378   2.076       .  S
N371        N372   1.325       .  A
N371        C375   1.349       .  A
N372        C373   1.344       .  A
C373        C374   1.380       .  A
C373        H376   1.082       .  S
C374        C375   1.387       .  A
C374       C1126   1.478       .  S
C375        H377   1.081       .  S
N378        N379   1.319       .  A
N378        C382   1.346       .  A
N379        C380   1.341       .  A
C380        C381   1.376       .  A
C380        H383   1.082       .  S
C381        C382   1.388       .  A
C381       C1069   1.471       .  S
C382        H384   1.081       .  S
N385        N386   1.321       .  A
N385        C389   1.342       .  A
N385       Cu393   2.063       .  S
N386        C387   1.348       .  A
N386       Cu392   2.081       .  S
C387        C388   1.388       .  A
C387        H390   1.082       .  S
C388        C389   1.379       .  A
C388       C1059   1.476       .  S
C389        H391   1.082       .  S
Cu392       N395   2.081       .  S
Cu393       N403   2.063       .  S
Cu394       N396   2.079       .  S
Cu394       N402   2.078       .  S
N395        N396   1.325       .  A
N395        C399   1.346       .  A
N396        C397   1.346       .  A
C397        C398   1.379       .  A
C397        H400   1.082       .  S
C398        C399   1.379       .  A
C398       C1058   1.438       .  S
C399        H401   1.082       .  S
N402        N403   1.321       .  A
N402        C406   1.347       .  A
N403        C404   1.343       .  A
C404        C405   1.379       .  A
C404        H407   1.082       .  S
C405        C406   1.387       .  A
C405       C1063   1.474       .  S
C406        H408   1.082       .  S
N409        N410   1.322       .  A
N409        C413   1.345       .  A
N409       Cu417   2.070       .  S
N410        C411   1.345       .  A
N410       Cu416   2.075       .  S
C411        C412   1.386       .  A
C411        H414   1.081       .  S
C412        C413   1.381       .  A
C412       C1064   1.476       .  S
C413        H415   1.082       .  S
Cu416       N419   2.074       .  S
Cu417       N427   2.070       .  S
Cu418       N420   2.060       .  S
Cu418       N426   2.060       .  S
N419        N420   1.322       .  A
N419        C423   1.345       .  A
N420        C421   1.342       .  A
C421        C422   1.383       .  A
C421        H424   1.082       .  S
C422        C423   1.382       .  A
C422       C1160   1.474       .  S
C423        H425   1.082       .  S
N426        N427   1.321       .  A
N426        C430   1.344       .  A
N427        C428   1.342       .  A
C428        C429   1.386       .  A
C428        H431   1.082       .  S
C429        C430   1.380       .  A
C429       C1074   1.473       .  S
C430        H432   1.082       .  S
N433        N434   1.323       .  A
N433        C437   1.346       .  A
N433       Cu441   2.079       .  S
N434        C435   1.346       .  A
N434       Cu440   2.079       .  S
C435        C436   1.383       .  A
C435        H438   1.082       .  S
C436        C437   1.386       .  A
C436       C1110   1.479       .  S
C437        H439   1.082       .  S
Cu440       N443   2.079       .  S
Cu441       N451   2.079       .  S
Cu442       N444   2.073       .  S
Cu442       N450   2.073       .  S
N443        N444   1.322       .  A
N443        C447   1.345       .  A
N444        C445   1.345       .  A
C445        C446   1.382       .  A
C445        H448   1.082       .  S
C446        C447   1.387       .  A
C446       C1060   1.479       .  S
C447        H449   1.081       .  S
N450        N451   1.322       .  A
N450        C454   1.345       .  A
N451        C452   1.346       .  A
C452        C453   1.383       .  A
C452        H455   1.082       .  S
C453        C454   1.386       .  A
C453       C1144   1.478       .  S
C454        H456   1.081       .  S
N457        N458   1.322       .  A
N457        C461   1.349       .  A
N457       Cu465   2.089       .  S
N458        C459   1.341       .  A
N458       Cu464   2.054       .  S
C459        C460   1.376       .  A
C459        H462   1.082       .  S
C460        C461   1.389       .  A
C460       C1120   1.473       .  S
C461        H463   1.082       .  S
Cu464       N467   2.054       .  S
Cu465       N475   2.090       .  S
Cu466       N468   2.076       .  S
Cu466       N474   2.076       .  S
N467        N468   1.320       .  A
N467        C471   1.343       .  A
N468        C469   1.345       .  A
C469        C470   1.389       .  A
C469        H472   1.082       .  S
C470        C471   1.379       .  A
C470       C1150   1.476       .  S
C471        H473   1.082       .  S
N474        N475   1.324       .  A
N474        C478   1.344       .  A
N475        C476   1.348       .  A
C476        C477   1.388       .  A
C476        H479   1.082       .  S
C477        C478   1.380       .  A
C477       C1106   1.479       .  S
C478        H480   1.082       .  S
N481        N482   1.323       .  A
N481        C485   1.346       .  A
N481       Cu489   2.082       .  S
N482        C483   1.345       .  A
N482       Cu488   2.078       .  S
C483        C484   1.386       .  A
C483        H486   1.081       .  S
C484        C485   1.383       .  A
C484       C1049   1.479       .  S
C485        H487   1.082       .  S
Cu488       N491   2.077       .  S
Cu489       N499   2.082       .  S
Cu490       N492   2.065       .  S
Cu490       N498   2.065       .  S
N491        N492   1.323       .  A
N491        C495   1.347       .  A
N492        C493   1.344       .  A
C493        C494   1.377       .  A
C493        H496   1.082       .  S
C494        C495   1.381       .  A
C494       C1113   1.436       .  S
C495        H497   1.082       .  S
N498        N499   1.322       .  A
N498        C502   1.344       .  A
N499        C500   1.346       .  A
C500        C501   1.389       .  A
C500        H503   1.081       .  S
C501        C502   1.380       .  A
C501       C1054   1.478       .  S
C502        H504   1.082       .  S
N505        N506   1.324       .  A
N505        C509   1.350       .  A
N505       Cu513   2.097   1_554  S
N506        C507   1.342       .  A
N506       Cu512   2.063       .  S
C507        C508   1.377       .  A
C507        H510   1.082       .  S
C508        C509   1.390       .  A
C508       C1041   1.478       .  S
C509        H511   1.082       .  S
Cu512       N515   2.062       .  S
Cu513       N523   2.097       .  S
Cu514       N516   2.062       .  S
Cu514       N522   2.063       .  S
N515        N516   1.320   1_554  A
N515        C519   1.344       .  A
N516        C517   1.344       .  A
C517        C518   1.379       .  A
C517        H520   1.082       .  S
C518        C519   1.379   1_556  A
C518       C1168   1.433       .  S
C519        H521   1.082       .  S
N522        N523   1.324       .  A
N522        C526   1.342       .  A
N523        C524   1.350       .  A
C524        C525   1.390       .  A
C524        H527   1.082       .  S
C525        C526   1.377       .  A
C525       C1045   1.477       .  S
C526        H528   1.082       .  S
N529        N530   1.323       .  A
N529        C533   1.347       .  A
N529       Cu537   2.083       .  S
N530        C531   1.345       .  A
N530       Cu536   2.081       .  S
C531        C532   1.387       .  A
C531        H534   1.082       .  S
C532        C533   1.383       .  A
C532       C1033   1.482       .  S
C533        H535   1.081       .  S
Cu536       N539   2.080       .  S
Cu537       N547   2.082       .  S
Cu538       N540   2.068       .  S
Cu538       N546   2.068       .  S
N539        N540   1.323       .  A
N539        C543   1.347       .  A
N540        C541   1.344       .  A
C541        C542   1.378       .  A
C541        H544   1.082       .  S
C542        C543   1.382       .  A
C542       C1103   1.437       .  S
C543        H545   1.083       .  S
N546        N547   1.322       .  A
N546        C550   1.344       .  A
N547        C548   1.347       .  A
C548        C549   1.387       .  A
C548        H551   1.081       .  S
C549        C550   1.381       .  A
C549       C1037   1.477       .  S
C550        H552   1.082       .  S
N553        N554   1.323       .  A
N553        C557   1.351       .  A
N553       Cu561   2.094       .  S
N554        C555   1.342       .  A
N554       Cu560   2.065       .  S
C555        C556   1.378       .  A
C555        H558   1.082       .  S
C556        C557   1.390       .  A
C556       C1034   1.478       .  S
C557        H559   1.082       .  S
Cu560       N563   2.065       .  S
Cu561       N571   2.095       .  S
Cu562       N564   2.077       .  S
Cu562       N570   2.077       .  S
N563        N564   1.320       .  A
N563        C567   1.344       .  A
N564        C565   1.346       .  A
C565        C566   1.389       .  A
C565        H568   1.082       .  S
C566        C567   1.381       .  A
C566       C1046   1.479       .  S
C567        H569   1.082       .  S
N570        N571   1.325       .  A
N570        C574   1.344       .  A
N571        C572   1.348       .  A
C572        C573   1.388       .  A
C572        H575   1.082       .  S
C573        C574   1.380       .  A
C573       C1030   1.480       .  S
C574        H576   1.082       .  S
N577        N578   1.324       .  A
N577        C581   1.345       .  A
N577       Cu585   2.075       .  S
N578        C579   1.346       .  A
N578       Cu584   2.084       .  S
C579        C580   1.387       .  A
C579        H582   1.082       .  S
C580        C581   1.380       .  A
C580       C1021   1.477       .  S
C581        H583   1.082       .  S
Cu584       N587   2.084       .  S
Cu585       N595   2.075       .  S
Cu586       N588   2.068       .  S
Cu586       N594   2.067       .  S
N587        N588   1.323       .  A
N587        C591   1.348       .  A
N588        C589   1.345       .  A
C589        C590   1.379       .  A
C589        H592   1.082       .  S
C590        C591   1.383       .  A
C590       C1067   1.441       .  S
C591        H593   1.082       .  S
N594        N595   1.321       .  A
N594        C598   1.343       .  A
N595        C596   1.346       .  A
C596        C597   1.387       .  A
C596        H599   1.082       .  S
C597        C598   1.380       .  A
C597       C1025   1.476       .  S
C598        H600   1.082       .  S
N601        N602   1.321       .  A
N601        C605   1.345       .  A
N601       Cu609   2.069       .  S
N602        C603   1.346       .  A
N602       Cu608   2.078       .  S
C603        C604   1.383       .  A
C603        H606   1.081       .  S
C604        C605   1.386       .  A
C604       C1038   1.478       .  S
C605        H607   1.081       .  S
Cu608       N611   2.078       .  S
Cu609       N619   2.068       .  S
Cu610       N612   2.076       .  S
Cu610       N618   2.077       .  S
N611        N612   1.323       .  A
N611        C615   1.345       .  A
N612        C613   1.346       .  A
C613        C614   1.381       .  A
C613        H616   1.082       .  S
C614        C615   1.386       .  A
C614       C1017   1.478       .  S
C615        H617   1.082       .  S
N618        N619   1.322       .  A
N618        C622   1.346       .  A
N619        C620   1.344       .  A
C620        C621   1.378       .  A
C620        H623   1.082       .  S
C621        C622   1.386       .  A
C621       C1026   1.473       .  S
C622        H624   1.083       .  S
N625        N626   1.323       .  A
N625        C629   1.346       .  A
N625       Cu633   2.079       .  S
N626        C627   1.347       .  A
N626       Cu632   2.086       .  S
C627        C628   1.388       .  A
C627        H630   1.081       .  S
C628        C629   1.383       .  A
C628       C1009   1.482       .  S
C629        H631   1.081       .  S
Cu632       N635   2.086       .  S
Cu633       N643   2.078       .  S
Cu634       N636   2.067       .  S
Cu634       N642   2.066       .  S
N635        N636   1.323       .  A
N635        C639   1.348       .  A
N636        C637   1.344       .  A
C637        C638   1.378       .  A
C637        H640   1.082       .  S
C638        C639   1.383       .  A
C638       C1097   1.439       .  S
C639        H641   1.082       .  S
N642        N643   1.322       .  A
N642        C646   1.344       .  A
N643        C644   1.346       .  A
C644        C645   1.387       .  A
C644        H647   1.081       .  S
C645        C646   1.380       .  A
C645       C1014   1.476       .  S
C646        H648   1.082       .  S
N649        N650   1.322       .  A
N649        C653   1.349       .  A
N649       Cu657   2.095       .  S
N650        C651   1.344       .  A
N650       Cu656   2.064       .  S
C651        C652   1.379       .  A
C651        H654   1.082       .  S
C652        C653   1.390       .  A
C652       C1006   1.480       .  S
C653        H655   1.081       .  S
Cu656       N659   2.063       .  S
Cu657       N667   2.095   1_565  S
Cu658       N660   2.071       .  S
Cu658       N666   2.072       .  S
N659        N660   1.322   1_565  A
N659        C663   1.343       .  A
N660        C661   1.346       .  A
C661        C662   1.380       .  A
C661        H664   1.083       .  S
C662        C663   1.377   1_545  A
C662       C1077   1.433       .  S
C663        H665   1.082       .  S
N666        N667   1.323       .  A
N666        C670   1.345       .  A
N667        C668   1.348       .  A
C668        C669   1.386       .  A
C668        H671   1.081       .  S
C669        C670   1.384       .  A
C669       C1001   1.482       .  S
C670        H672   1.082       .  S
N673        N674   1.323       .  A
N673        C677   1.346       .  A
N673       Cu681   2.071       .  S
N674        C675   1.346       .  A
N674       Cu680   2.087       .  S
C675        C676   1.388       .  A
C675        H678   1.081       .  S
C676        C677   1.381       .  A
C676        C997   1.480       .  S
C677        H679   1.082       .  S
Cu680       N683   2.087       .  S
Cu681       N691   2.070       .  S
Cu682       N684   2.060       .  S
Cu682       N690   2.059       .  S
N683        N684   1.323       .  A
N683        C687   1.348       .  A
N684        C685   1.343       .  A
C685        C686   1.376       .  A
C685        H688   1.082       .  S
C686        C687   1.383       .  A
C686       C1057   1.438       .  S
C687        H689   1.082       .  S
N690        N691   1.321       .  A
N690        C694   1.343       .  A
N691        C692   1.344       .  A
C692        C693   1.385       .  A
C692        H695   1.082       .  S
C693        C694   1.379       .  A
C693        C993   1.471       .  S
C694        H696   1.082       .  S
N697        N698   1.321       .  A
N697        C701   1.344       .  A
N697       Cu705   2.075       .  S
N698        C699   1.343       .  A
N698       Cu704   2.056       .  S
C699        C700   1.378       .  A
C699        H702   1.082       .  S
C700        C701   1.387       .  A
C700        C989   1.473       .  S
C701        H703   1.082       .  S
Cu704       N707   2.056       .  S
Cu705       N715   2.075   1_556  S
Cu706       N708   2.076       .  S
Cu706       N714   2.077       .  S
N707        N708   1.322   1_556  A
N707        C711   1.342       .  A
N708        C709   1.347       .  A
C709        C710   1.381   1_554  A
C709        H712   1.082       .  S
C710        C711   1.375       .  A
C710       C1148   1.432   1_556  S
C711        H713   1.082       .  S
N714        N715   1.323       .  A
N714        C718   1.344       .  A
N715        C716   1.346       .  A
C716        C717   1.382       .  A
C716        H719   1.082       .  S
C717        C718   1.386       .  A
C717        C985   1.478       .  S
C718        H720   1.081       .  S
N721        N722   1.322       .  A
N721        C725   1.340       .  A
N721       Cu729   2.051       .  S
N722        C723   1.350       .  A
N722       Cu728   2.095       .  S
C723        C724   1.390       .  A
C723        H726   1.081       .  S
C724        C725   1.375       .  A
C724        C986   1.473       .  S
C725        H727   1.083       .  S
Cu728       N731   2.096       .  S
Cu729       N739   2.050       .  S
Cu730       N732   2.072       .  S
Cu730       N738   2.071       .  S
N731        N732   1.324       .  A
N731        C735   1.349       .  A
N732        C733   1.344       .  A
C733        C734   1.379       .  A
C733        H736   1.082       .  S
C734        C735   1.389       .  A
C734       C1005   1.480       .  S
C735        H737   1.081       .  S
N738        N739   1.320       .  A
N738        C742   1.345       .  A
N739        C740   1.342       .  A
C740        C741   1.378       .  A
C740        H743   1.083       .  S
C741        C742   1.387       .  A
C741        C994   1.470       .  S
C742        H744   1.082       .  S
N745        N746   1.322       .  A
N745        C749   1.346       .  A
N745       Cu753   2.075       .  S
N746        C747   1.345       .  A
N746       Cu752   2.076       .  S
C747        C748   1.382       .  A
C747        H750   1.082       .  S
C748        C749   1.386       .  A
C748       C1050   1.478       .  S
C749        H751   1.082       .  S
Cu752       N755   2.076       .  S
Cu753       N763   2.075       .  S
Cu754       N756   2.089       .  S
Cu754       N762   2.088       .  S
N755        N756   1.323       .  A
N755        C759   1.347       .  A
N756        C757   1.347       .  A
C757        C758   1.385       .  A
C757        H760   1.082       .  S
C758        C759   1.385       .  A
C758       C1002   1.481       .  S
C759        H761   1.082       .  S
N762        N763   1.323       .  A
N762        C766   1.348       .  A
N763        C764   1.345       .  A
C764        C765   1.381       .  A
C764        H767   1.082       .  S
C765        C766   1.388       .  A
C765        C982   1.480       .  S
C766        H768   1.081       .  S
N769        N770   1.323       .  A
N769        C773   1.347       .  A
N769       Cu777   2.087   1_655  S
N770        C771   1.345       .  A
N770       Cu776   2.077       .  S
C771        C772   1.385       .  A
C771        H774   1.081       .  S
C772        C773   1.384       .  A
C772        C977   1.481       .  S
C773        H775   1.082       .  S
Cu776       N779   2.076       .  S
Cu777       N787   2.087       .  S
Cu778       N780   2.067       .  S
Cu778       N786   2.067       .  S
N779        N780   1.322   1_655  A
N779        C783   1.347       .  A
N780        C781   1.344       .  A
C781        C782   1.378   1_455  A
C781        H784   1.082       .  S
C782        C783   1.381       .  A
C782       C1123   1.437       .  S
C783        H785   1.082       .  S
N786        N787   1.322       .  A
N786        C790   1.344       .  A
N787        C788   1.348       .  A
C788        C789   1.389       .  A
C788        H791   1.081       .  S
C789        C790   1.380       .  A
C789       C1029   1.479       .  S
C790        H792   1.082       .  S
N793        N794   1.321       .  A
N793        C797   1.346       .  A
N793       Cu801   2.073       .  S
N794        C795   1.343       .  A
N794       Cu800   2.066       .  S
C795        C796   1.380       .  A
C795        H798   1.082       .  S
C796        C797   1.386       .  A
C796        C973   1.473       .  S
C797        H799   1.082       .  S
Cu800       N803   2.067       .  S
Cu801       N811   2.074       .  S
Cu802       N804   2.092       .  S
Cu802       N810   2.092       .  S
N803        N804   1.323       .  A
N803        C807   1.345       .  A
N804        C805   1.349       .  A
C805        C806   1.384       .  A
C805        H808   1.081       .  S
C806        C807   1.378       .  A
C806       C1138   1.441       .  S
C807        H809   1.082       .  S
N810        N811   1.324       .  A
N810        C814   1.348       .  A
N811        C812   1.345       .  A
C812        C813   1.381       .  A
C812        H815   1.082       .  S
C813        C814   1.388       .  A
C813        C981   1.480       .  S
C814        H816   1.081       .  S
N817        N818   1.323       .  A
N817        C821   1.349       .  A
N817       Cu825   2.090   1_455  S
N818        C819   1.341       .  A
N818       Cu824   2.059       .  S
C819        C820   1.377       .  A
C819        H822   1.082       .  S
C820        C821   1.389       .  A
C820       C1018   1.475       .  S
C821        H823   1.081       .  S
Cu824       N827   2.058       .  S
Cu825       N835   2.090       .  S
Cu826       N828   2.061       .  S
Cu826       N834   2.061       .  S
N827        N828   1.320   1_455  A
N827        C831   1.343       .  A
N828        C829   1.344       .  A
C829        C830   1.379       .  A
C829        H832   1.082       .  S
C830        C831   1.377   1_655  A
C830       C1088   1.431   1_655  S
C831        H833   1.082       .  S
N834        N835   1.323       .  A
N834        C838   1.341       .  A
N835        C836   1.349       .  A
C836        C837   1.388       .  A
C836        H839   1.081       .  S
C837        C838   1.377       .  A
C837        C969   1.473       .  S
C838        H840   1.082       .  S
N841        N842   1.322       .  A
N841        C845   1.345       .  A
N841       Cu849   2.070   1_565  S
N842        C843   1.344       .  A
N842       Cu848   2.075       .  S
C843        C844   1.386       .  A
C843        H846   1.082       .  S
C844        C845   1.380       .  A
C844        C965   1.476       .  S
C845        H847   1.081       .  S
Cu848       N851   2.074       .  S
Cu849       N859   2.070       .  S
Cu850       N852   2.067       .  S
Cu850       N858   2.067       .  S
N851        N852   1.323   1_565  A
N851        C855   1.346       .  A
N852        C853   1.344       .  A
C853        C854   1.377   1_545  A
C853        H856   1.082       .  S
C854        C855   1.380       .  A
C854       C1157   1.435       .  S
C855        H857   1.082       .  S
N858        N859   1.321       .  A
N858        C862   1.344       .  A
N859        C860   1.345       .  A
C860        C861   1.385       .  A
C860        H863   1.081       .  S
C861        C862   1.381       .  A
C861        C961   1.474       .  S
C862        H864   1.082       .  S
N865        N866   1.322       .  A
N865        C869   1.345       .  A
N865       Cu873   2.070       .  S
N866        C867   1.343       .  A
N866       Cu872   2.069       .  S
C867        C868   1.385       .  A
C867        H870   1.082       .  S
C868        C869   1.382       .  A
C868        C974   1.475       .  S
C869        H871   1.082       .  S
Cu872       N875   2.069       .  S
Cu873       N883   2.070       .  S
Cu874       N876   2.075       .  S
Cu874       N882   2.074       .  S
N875        N876   1.322       .  A
N875        C879   1.345       .  A
N876        C877   1.344       .  A
C877        C878   1.387       .  A
C877        H880   1.081       .  S
C878        C879   1.381       .  A
C878        C970   1.477       .  S
C879        H881   1.082       .  S
N882        N883   1.322       .  A
N882        C886   1.346       .  A
N883        C884   1.343       .  A
C884        C885   1.385       .  A
C884        H887   1.081       .  S
C885        C886   1.382       .  A
C885        C962   1.475       .  S
C886        H888   1.082       .  S
N889        N890   1.321       .  A
N889        C893   1.340       .  A
N889       Cu897   2.050       .  S
N890        C891   1.348       .  A
N890       Cu896   2.084       .  S
C891        C892   1.388       .  A
C891        H894   1.082       .  S
C892        C893   1.375       .  A
C892        C990   1.471       .  S
C893        H895   1.082       .  S
Cu896       N899   2.085       .  S
Cu897       N907   2.050       .  S
Cu898       N900   2.082       .  S
Cu898       N906   2.080       .  S
N899        N900   1.325       .  A
N899        C903   1.348       .  A
N900        C901   1.344       .  A
C901        C902   1.381       .  A
C901        H904   1.082       .  S
C902        C903   1.386       .  A
C902        C978   1.478       .  S
C903        H905   1.082       .  S
N906        N907   1.320       .  A
N906        C910   1.348       .  A
N907        C908   1.341       .  A
C908        C909   1.377       .  A
C908        H911   1.082       .  S
C909        C910   1.388       .  A
C909        C966   1.473       .  S
C910        H912   1.081       .  S
N913        N914   1.323       .  A
N913        C917   1.341       .  A
N913       Cu921   2.062       .  S
N914        C915   1.351       .  A
N914       Cu920   2.093       .  S
C915        C916   1.390       .  A
C915        H918   1.082       .  S
C916        C917   1.377       .  A
C916        C998   1.476       .  S
C917        H919   1.082       .  S
Cu920       N923   2.094       .  S
Cu921       N931   2.061       .  S
Cu922       N924   2.073       .  S
Cu922       N930   2.072       .  S
N923        N924   1.324       .  A
N923        C927   1.348       .  A
N924        C925   1.344       .  A
C925        C926   1.379       .  A
C925        H928   1.082       .  S
C926        C927   1.389       .  A
C926       C1042   1.480       .  S
C927        H929   1.082       .  S
N930        N931   1.320       .  A
N930        C934   1.346       .  A
N931        C932   1.343       .  A
C932        C933   1.380       .  A
C932        H935   1.082       .  S
C933        C934   1.387       .  A
C933       C1013   1.475       .  S
C934        H936   1.081       .  S
N937        N938   1.325       .  A
N937        C941   1.350       .  A
N937       Cu945   2.095       .  S
N938        C939   1.344       .  A
N938       Cu944   2.080       .  S
C939        C940   1.380       .  A
C939        H942   1.081       .  S
C940        C941   1.389       .  A
C940       C1010   1.481       .  S
C941        H943   1.081       .  S
Cu944       N947   2.079       .  S
Cu945       N955   2.094       .  S
Cu946       N948   2.056       .  S
Cu946       N954   2.056       .  S
N947        N948   1.320       .  A
N947        C951   1.347       .  A
N948        C949   1.343       .  A
C949        C950   1.380       .  A
C949        H952   1.082       .  S
C950        C951   1.389       .  A
C950       C1022   1.476       .  S
C951        H953   1.081       .  S
N954        N955   1.322       .  A
N954        C958   1.340       .  A
N955        C956   1.350       .  A
C956        C957   1.390       .  A
C956        H959   1.082       .  S
C957        C958   1.376       .  A
C957       C1053   1.475       .  S
C958        H960   1.082       .  S
C961        C962   1.343       .  D
C961        H963   1.085       .  S
C962        H964   1.085       .  S
C965        C966   1.340       .  D
C965        H967   1.085       .  S
C966        H968   1.085       .  S
C969        C970   1.341       .  D
C969        H971   1.085       .  S
C970        H972   1.086       .  S
C973        C974   1.342       .  D
C973        H975   1.086       .  S
C974        H976   1.086       .  S
C977        C978   1.344       .  D
C977        H979   1.085       .  S
C978        H980   1.085       .  S
C981        C982   1.343       .  D
C981        H983   1.086       .  S
C982        H984   1.086       .  S
C985        C986   1.341       .  D
C985        H987   1.086       .  S
C986        H988   1.086       .  S
C989        C990   1.339       .  D
C989        H991   1.086       .  S
C990        H992   1.086       .  S
C993        C994   1.339       .  D
C993        H995   1.086       .  S
C994        H996   1.086       .  S
C997        C998   1.341       .  D
C997        H999   1.086       .  S
C998       H1000   1.086       .  S
C1001      C1002   1.347       .  D
C1001      H1003   1.085       .  S
C1002      H1004   1.085       .  S
C1005      C1006   1.342       .  D
C1005      H1007   1.086       .  S
C1006      H1008   1.086       .  S
C1009      C1010   1.344       .  D
C1009      H1011   1.085       .  S
C1010      H1012   1.085       .  S
C1013      C1014   1.342       .  D
C1013      H1015   1.086       .  S
C1014      H1016   1.086       .  S
C1017      C1018   1.341       .  D
C1017      H1019   1.086       .  S
C1018      H1020   1.086       .  S
C1021      C1022   1.341       .  D
C1021      H1023   1.086       .  S
C1022      H1024   1.086       .  S
C1025      C1026   1.340       .  D
C1025      H1027   1.086       .  S
C1026      H1028   1.085       .  S
C1029      C1030   1.342       .  D
C1029      H1031   1.086       .  S
C1030      H1032   1.086       .  S
C1033      C1034   1.343       .  D
C1033      H1035   1.085       .  S
C1034      H1036   1.085       .  S
C1037      C1038   1.343       .  D
C1037      H1039   1.086       .  S
C1038      H1040   1.085       .  S
C1041      C1042   1.341       .  D
C1041      H1043   1.086       .  S
C1042      H1044   1.086       .  S
C1045      C1046   1.341       .  D
C1045      H1047   1.085       .  S
C1046      H1048   1.086       .  S
C1049      C1050   1.344       .  D
C1049      H1051   1.086       .  S
C1050      H1052   1.086       .  S
C1053      C1054   1.340       .  D
C1053      H1055   1.086       .  S
C1054      H1056   1.086       .  S
C1057      C1058   1.206       .  T
C1059      C1060   1.342       .  D
C1059      H1061   1.085       .  S
C1060      H1062   1.086       .  S
C1063      C1064   1.341       .  D
C1063      H1065   1.086       .  S
C1064      H1066   1.086       .  S
C1067      C1068   1.208       .  T
C1069      C1070   1.337       .  D
C1069      H1071   1.086       .  S
C1070      H1072   1.087       .  S
C1073      C1074   1.339       .  D
C1073      H1075   1.086       .  S
C1074      H1076   1.087       .  S
C1077      C1078   1.204       .  T
C1079      C1080   1.338       .  D
C1079      H1081   1.085       .  S
C1080      H1082   1.086       .  S
C1083      C1084   1.342       .  D
C1083      H1085   1.085       .  S
C1084      H1086   1.085       .  S
C1087      C1088   1.202       .  T
C1089      C1090   1.337       .  D
C1089      H1091   1.086       .  S
C1090      H1092   1.086       .  S
C1093      C1094   1.337       .  D
C1093      H1095   1.086       .  S
C1094      H1096   1.086       .  S
C1097      C1098   1.207       .  T
C1099      C1100   1.340       .  D
C1099      H1101   1.085       .  S
C1100      H1102   1.085       .  S
C1103      C1104   1.206       .  T
C1105      C1106   1.342       .  D
C1105      H1107   1.086       .  S
C1106      H1108   1.086       .  S
C1109      C1110   1.345       .  D
C1109      H1111   1.085       .  S
C1110      H1112   1.085       .  S
C1113      C1114   1.205       .  T
C1115      C1116   1.341       .  D
C1115      H1117   1.086       .  S
C1116      H1118   1.085       .  S
C1119      C1120   1.339       .  D
C1119      H1121   1.086       .  S
C1120      H1122   1.086       .  S
C1123      C1124   1.206       .  T
C1125      C1126   1.343       .  D
C1125      H1127   1.086       .  S
C1126      H1128   1.085       .  S
C1129      C1130   1.339       .  D
C1129      H1131   1.086       .  S
C1130      H1132   1.086       .  S
C1133      C1134   1.341       .  D
C1133      H1135   1.085       .  S
C1134      H1136   1.086       .  S
C1137      C1138   1.208       .  T
C1139      C1140   1.343       .  D
C1139      H1141   1.086       .  S
C1140      H1142   1.086       .  S
C1143      C1144   1.344       .  D
C1143      H1145   1.086       .  S
C1144      H1146   1.086       .  S
C1147      C1148   1.203   1_556  T
C1149      C1150   1.340       .  D
C1149      H1151   1.085       .  S
C1150      H1152   1.086       .  S
C1153      C1154   1.338       .  D
C1153      H1155   1.086       .  S
C1154      H1156   1.086       .  S
C1157      C1158   1.205       .  T
C1159      C1160   1.341       .  D
C1159      H1161   1.085       .  S
C1160      H1162   1.085       .  S
C1163      C1164   1.340       .  D
C1163      H1165   1.085       .  S
C1164      H1166   1.086       .  S
C1167      C1168   1.203       .  T
C1169      C1170   1.343       .  D
C1169      H1171   1.086       .  S
C1170      H1172   1.086       .  S
C1173      C1174   1.338       .  D
C1173      H1175   1.086       .  S
C1174      H1176   1.085       .  S
