geometry optimzed in LAMMPS
_audit_creation_date              2020-11-30 
_audit_creation_method            'lammps2cif' 
_symmetry_space_group_name_H-M    'P1' 
_symmetry_Int_Tables_number       1 
_symmetry_cell_setting            triclinic 
loop_ 
_symmetry_equiv_pos_as_xyz 
  x,y,z 
_cell_length_a                    29.30624386 
_cell_length_b                    29.695309239146514 
_cell_length_c                    38.06293700781979 
_cell_angle_alpha                 92.7249631959624 
_cell_angle_beta                  88.94677256413677 
_cell_angle_gamma                 90.12599503528551 
loop_ 
_atom_site_label 
_atom_site_type_symbol 
_atom_site_fract_x 
_atom_site_fract_y 
_atom_site_fract_z 
_atom_site_charge 
C1          C  0.86936178  0.36797319  0.46940462     0.32700
C2          C  0.85002250  0.37561141  0.04144869     0.32700
C3          C  0.87948038  0.32279460  0.48616739    -0.03500
C4          C  0.90418782  0.40032367  0.48730391    -0.04300
C5          C  0.82378268  0.38272523  0.48740435    -0.04200
C6          C  0.86133093  0.32945301  0.02321709    -0.03500
C7          C  0.88563652  0.40699308  0.02509496    -0.04300
C8          C  0.80551171  0.38930060  0.02376104    -0.04200
C9          C  0.87617569  0.28779246  0.03334001    -0.29600
N10         N  0.90221554  0.25588780  0.50383438     0.16900
C11         C  0.89435026  0.28007349  0.47502974    -0.29600
H12         H  0.90106292  0.26825091  0.44809611     0.18900
C13         C  0.91804731  0.43775267  0.03702335    -0.28500
N14         N  0.93936289  0.45538507  0.00875531     0.15700
C15         C  0.93822262  0.42989815  0.47731868    -0.28500
C16         C  0.76285713  0.40542933  0.03440647    -0.28800
N17         N  0.73856453  0.41414209  0.00536835     0.16200
H18         H  0.75069054  0.41106353  0.06127493     0.18800
C19         C  0.78111365  0.39657880  0.47716060    -0.28800
H20         H  0.77006296  0.39971772  0.45040770     0.18800
H21         H  0.94810636  0.43730285  0.45066596     0.18800
H22         H  0.88143238  0.27817227  0.06004038     0.18900
H23         H  0.92548362  0.44670858  0.06422028     0.18800
C24         C  0.85368494  0.36632643  0.21937664     0.32700
C25         C  0.85771731  0.36270911  0.29077479     0.32700
C26         C  0.86895755  0.32108823  0.23307015    -0.03500
C27         C  0.88634667  0.39994163  0.23764729    -0.04300
C28         C  0.80862761  0.37510439  0.23967243    -0.04200
C29         C  0.87098646  0.31925583  0.26963750    -0.03500
C30         C  0.88836491  0.39800905  0.27410807    -0.04300
C31         C  0.81064379  0.37332702  0.27622017    -0.04200
C32         C  0.88673859  0.27713272  0.27677640    -0.29600
N33         N  0.89400671  0.25367426  0.24573243     0.16900
C34         C  0.88360658  0.28000277  0.21883773    -0.29600
H35         H  0.88749983  0.27034115  0.19116293     0.18900
C36         C  0.91896347  0.43032431  0.28572808    -0.28500
N37         N  0.93528789  0.45158668  0.25737232     0.15700
C38         C  0.91582535  0.43350888  0.22784994    -0.28500
C39         C  0.76846589  0.38613512  0.28976886    -0.28800
N40         N  0.74128108  0.39511965  0.26248734     0.16200
H41         H  0.75900771  0.39091504  0.31731720     0.18800
C42         C  0.76534312  0.38883623  0.23186370    -0.28800
H43         H  0.75301379  0.39612349  0.20610504     0.18800
H44         H  0.92266551  0.44397169  0.20140604     0.18800
H45         H  0.89350747  0.26479979  0.30247751     0.18900
H46         H  0.92869102  0.43783581  0.31267829     0.18800
C47         C  0.68491998  0.87276419  0.05204936     0.32700
C48         C  0.68765028  0.86894817  0.47993487     0.32700
C49         C  0.66471026  0.83080589  0.03338073    -0.03500
C50         C  0.65963819  0.91114711  0.03530850    -0.04300
C51         C  0.73302676  0.87576034  0.03545928    -0.04200
C52         C  0.68557459  0.82161052  0.49467274    -0.03500
C53         C  0.64626390  0.89223199  0.49754306    -0.04300
C54         C  0.72751428  0.89149726  0.49931289    -0.04200
C55         C  0.66243392  0.78371401  0.48203902    -0.29600
N56         N  0.62610812  0.77117757  0.01358639     0.16900
C57         C  0.63977093  0.79407093  0.04320487    -0.29600
H58         H  0.63064740  0.78559046  0.06978235     0.18900
C59         C  0.61033844  0.91713660  0.48663343    -0.28500
N60         N  0.62090085  0.96919232  0.01754852     0.15700
C61         C  0.63422858  0.94817861  0.04650672    -0.28500
C62         C  0.76603646  0.91548009  0.49057705    -0.28800
N63         N  0.79292439  0.91595477  0.01840409     0.16200
H64         H  0.77804098  0.92260649  0.46435088     0.18800
C65         C  0.76939324  0.90200227  0.04669645    -0.28800
H66         H  0.77512043  0.91434360  0.07348517     0.18800
H67         H  0.62569867  0.95880741  0.07342204     0.18800
H68         H  0.65246321  0.77681393  0.45506416     0.18900
H69         H  0.60322064  0.92544825  0.45989091     0.18800
C70         C  0.68246822  0.87384902  0.23078815     0.32700
C71         C  0.68465726  0.87921891  0.30222366     0.32700
C72         C  0.73044822  0.87700459  0.24627651    -0.03500
C73         C  0.65850453  0.91458391  0.24865336    -0.04300
C74         C  0.66053667  0.83456033  0.24932562    -0.04200
C75         C  0.73154909  0.87963429  0.28359447    -0.03500
C76         C  0.65949325  0.91753255  0.28532514    -0.04300
C77         C  0.66175031  0.83739101  0.28587486    -0.04200
C78         C  0.76853699  0.90626382  0.29248051    -0.29600
N79         N  0.78977409  0.91897078  0.26287081     0.16900
C80         C  0.76687219  0.90233463  0.23474868    -0.29600
H81         H  0.77288235  0.91239547  0.20808241     0.18900
C82         C  0.63584551  0.95571599  0.29626244    -0.28500
N83         N  0.62110131  0.97539980  0.26713235     0.15700
C84         C  0.63446857  0.95076307  0.23798361    -0.28500
C85         C  0.63778697  0.80138166  0.29803163    -0.28800
N86         N  0.62215212  0.77722451  0.26972680     0.16200
H87         H  0.63176831  0.79350391  0.32521226     0.18800
C88         C  0.63572962  0.79679125  0.23983808    -0.28800
H89         H  0.62777583  0.78461303  0.21339181     0.18800
H90         H  0.62654082  0.95828552  0.21121808     0.18800
H91         H  0.77607364  0.91994875  0.31861823     0.18900
H92         H  0.62917855  0.96787709  0.32312346     0.18800
O93         O  0.12443600  0.07676180  0.47832188    -0.78200
O94         O  0.92128319  0.01919729  0.00443280    -0.62900
O95         O  0.03786244  0.07570227  0.01704864    -1.09500
C96         C  0.08811087  0.92283877  0.02550118     1.08700
O97         O  0.93275558  0.97704048  0.04959277    -0.76100
O98         O  0.01019734  0.98087745  0.08450082    -0.63700
Ni99       Ni  0.06767633  0.10796659  0.48598263     1.34900
C100        C  0.04224892  0.00870627  0.09064659     0.87400
O101        O  0.94679055  0.10662010  0.01121863    -0.76700
O102        O  0.01292466  0.14362751  0.49162494    -0.86900
C103        C  0.90761274  0.98982143  0.02529844     0.87000
O104        O  0.04661620  0.07851069  0.44375340    -0.65100
O105        O  0.04796024  0.91593665  0.03754060    -0.84400
C106        C  0.01439754  0.05084723  0.43764546     0.87800
C107        C  0.97205138  0.13734369  0.50236083     1.09400
H108        H  0.01705551  0.96862819  0.48936253     0.41200
O109        O  0.01173489  0.99328084  0.01027072    -1.07100
O110        O  0.06901167  0.02251524  0.06690871    -0.63700
Ni111      Ni  0.07083927  0.01917366  0.01634944     1.26300
O112        O  0.98857127  0.03599389  0.46158827    -0.64000
O113        O  0.10173190  0.96118655  0.01532664    -0.76300
C114        C  0.14372463  0.07841308  0.00210075     0.87200
O115        O  0.12864134  0.04796662  0.02139003    -0.63400
Ni116      Ni  0.99149654  0.94924724  0.04248377     1.27400
Ni117      Ni  0.97863623  0.04935942  0.01027287     1.26100
H118        H  0.03819622  0.08969675  0.04048699     0.41700
O119        O  0.12183924  0.10294191  0.23762944    -0.78200
O120        O  0.92296324  0.01830505  0.25315325    -0.62900
O121        O  0.03921511  0.07393019  0.26653324    -1.09500
C122        C  0.09036533  0.92898402  0.28587515     1.08700
O123        O  0.93070035  0.96155792  0.28909890    -0.76100
O124        O  0.99684793  0.99704945  0.33173276    -0.63700
Ni125      Ni  0.05830150  0.11458783  0.23128117     1.34900
C126        C  0.03290864  0.01882463  0.33955484     0.87400
O127        O  0.95080160  0.10372029  0.26026707    -0.76700
O128        O  0.99750389  0.13524107  0.22185410    -0.86900
C129        C  0.90735115  0.98483271  0.26895715     0.87000
O130        O  0.05540194  0.06833667  0.19505591    -0.65100
O131        O  0.05496940  0.93048305  0.30552456    -0.84400
C132        C  0.01971804  0.04594906  0.18724868     0.87800
C133        C  0.96143851  0.13568772  0.24082063     1.09400
H134        H  0.01237505  0.97462114  0.23753549     0.41200
O135        O  0.01295039  0.99067844  0.26020998    -1.07100
O136        O  0.06667644  0.02165427  0.31809252    -0.63700
Ni137      Ni  0.07133313  0.01772503  0.26697543     1.26300
O138        O  0.98579621  0.04295238  0.20851305    -0.64000
O139        O  0.10104027  0.96054473  0.26605535    -0.76300
C140        C  0.14528709  0.07874005  0.25705267     0.87200
O141        O  0.12932724  0.04559175  0.27299500    -0.63400
Ni142      Ni  0.99413860  0.95043134  0.29578418     1.27400
Ni143      Ni  0.98078196  0.04673552  0.25956008     1.26100
H144        H  0.03969144  0.08978628  0.28928190     0.41700
C145        C  0.20959996  0.68430888  0.48308544     0.32700
C146        C  0.19147526  0.69262425  0.05609251     0.32700
C147        C  0.18444247  0.73690365  0.00270146    -0.03500
C148        C  0.15925448  0.65959616  0.00075154    -0.04300
C149        C  0.23973814  0.67639139  0.00245094    -0.04200
C150        C  0.18242946  0.73797015  0.03930008    -0.03500
C151        C  0.15723406  0.66062210  0.03734168    -0.04300
C152        C  0.23774775  0.67744972  0.03916345    -0.04200
C153        C  0.16702305  0.78048442  0.05049910    -0.29600
N154        N  0.15997689  0.80511619  0.02182522     0.16900
C155        C  0.17025764  0.77878449  0.99251617    -0.29600
H156        H  0.17174694  0.77999602  0.46671575     0.18900
C157        C  0.12352193  0.63046667  0.04680884    -0.28500
N158        N  0.10528568  0.61133890  0.01703009     0.15700
C159        C  0.14266413  0.62199093  0.48927529    -0.28500
C160        C  0.27947461  0.66173213  0.05024060    -0.28800
N161        N  0.30654688  0.65126392  0.02149076     0.16200
H162        H  0.28913358  0.65762972  0.07721107     0.18800
C163        C  0.29771222  0.65432248  0.48693980    -0.28800
H164        H  0.30814583  0.64864717  0.45966780     0.18800
H165        H  0.13369168  0.61360425  0.46228454     0.18800
H166        H  0.15919117  0.79178984  0.07738571     0.18900
H167        H  0.11328720  0.62279222  0.07333304     0.18800
C168        C  0.17638112  0.69618516  0.23470663     0.32700
C169        C  0.17985121  0.69130607  0.30618538     0.32700
C170        C  0.16388544  0.73950060  0.25617641    -0.03500
C171        C  0.14488038  0.66114569  0.25085383    -0.04300
C172        C  0.22285864  0.68485398  0.24938545    -0.04200
C173        C  0.16563842  0.73709580  0.29277259    -0.03500
C174        C  0.14651902  0.65851832  0.28740606    -0.04300
C175        C  0.22465355  0.68237769  0.28581125    -0.04200
C176        C  0.15553848  0.77939492  0.30713534    -0.29600
N177        N  0.14806501  0.80682290  0.28032193     0.16900
C178        C  0.15285908  0.78304346  0.24919330    -0.29600
H179        H  0.14863813  0.79650737  0.22351802     0.18900
C180        C  0.11492692  0.62650717  0.29669026    -0.28500
N181        N  0.09465284  0.61014272  0.26691098     0.15700
C182        C  0.11253057  0.63086787  0.23882634    -0.28500
C183        C  0.26904073  0.67333957  0.29387151    -0.28800
N184        N  0.29375333  0.67064730  0.26341475     0.16200
H185        H  0.28229177  0.66824450  0.31974801     0.18800
C186        C  0.26614810  0.67725428  0.23601630    -0.28800
H187        H  0.27667679  0.67581831  0.20857404     0.18800
H188        H  0.10225489  0.62478596  0.21183694     0.18800
H189        H  0.15376378  0.78951767  0.33482513     0.18900
H190        H  0.10680157  0.61634059  0.32301763     0.18800
C191        C  0.36827560  0.19386806  0.04831047     0.32700
C192        C  0.36693257  0.18974514  0.47688343     0.32700
C193        C  0.37081112  0.24101260  0.03335655    -0.03500
C194        C  0.40911673  0.16995315  0.03034168    -0.04300
C195        C  0.32781031  0.17172843  0.02935474    -0.04200
C196        C  0.38673598  0.23162664  0.49583186    -0.03500
C197        C  0.39354823  0.15139432  0.49255298    -0.04300
C198        C  0.31937143  0.18537626  0.49408979    -0.04200
C199        C  0.41400837  0.26670453  0.48602196    -0.29600
N200        N  0.41164061  0.30014347  0.01746028     0.16900
C201        C  0.39643314  0.27759901  0.04530730    -0.29600
H202        H  0.40803230  0.28382562  0.07194824     0.18900
C203        C  0.41951965  0.11511864  0.48045397    -0.28500
N204        N  0.46906071  0.13077139  0.01142720     0.15700
C205        C  0.44549680  0.14524990  0.04070604    -0.28500
C206        C  0.28356717  0.15839924  0.48288891    -0.28800
N207        N  0.26853352  0.13376601  0.00841314     0.16200
H208        H  0.27761995  0.14657373  0.45600627     0.18800
C209        C  0.28955811  0.14764557  0.03847787    -0.28800
H210        H  0.27811889  0.14033090  0.06480641     0.18800
H211        H  0.45344142  0.13707399  0.06732769     0.18800
H212        H  0.42369080  0.27463595  0.45942834     0.18900
H213        H  0.42753390  0.10527257  0.45329829     0.18800
C214        C  0.36814079  0.19876521  0.29874112     0.32700
C215        C  0.36841969  0.19633827  0.22721215     0.32700
C216        C  0.36827201  0.24510865  0.28246027    -0.03500
C217        C  0.40896783  0.17535832  0.28044891    -0.04300
C218        C  0.32780554  0.17464806  0.28138984    -0.04200
C219        C  0.36835394  0.24380086  0.24510865    -0.03500
C220        C  0.40923350  0.17398880  0.24378177    -0.04300
C221        C  0.32794261  0.17344109  0.24480890    -0.04200
C222        C  0.39251684  0.28108889  0.23510620    -0.29600
N223        N  0.40605357  0.30468788  0.26416103     0.16900
C224        C  0.39254983  0.28309015  0.29292821    -0.29600
H225        H  0.40423407  0.29136648  0.31928324     0.18900
C226        C  0.44610055  0.14844591  0.23235542    -0.28500
N227        N  0.46775834  0.13495537  0.26118949     0.15700
C228        C  0.44552316  0.15085600  0.29064341    -0.28500
C229        C  0.29123117  0.14792194  0.23403557    -0.28800
N230        N  0.26931069  0.13375274  0.26314393     0.16200
H231        H  0.28137780  0.13986193  0.20718959     0.18800
C232        C  0.29098921  0.14982327  0.29225788    -0.28800
H233        H  0.28093289  0.14353811  0.31909526     0.18800
H234        H  0.45423766  0.14344968  0.31727852     0.18800
H235        H  0.40416880  0.28752157  0.20864654     0.18900
H236        H  0.45538098  0.13879849  0.20538662     0.18800
O237        O  0.57838392  0.50252614  0.42946190    -0.78200
O238        O  0.53779862  0.49072877  0.08597495    -0.62900
O239        O  0.52311459  0.49598373  0.48619778    -1.09500
C240        C  0.55182631  0.65769482  0.02071834     1.08700
O241        O  0.49120445  0.54713934  0.09688779    -0.76100
O242        O  0.45595052  0.61061668  0.05721052    -0.63700
Ni243      Ni  0.54805014  0.45425413  0.45162699     1.34900
C244        C  0.43841548  0.60503499  0.02712845     0.87400
O245        O  0.50301606  0.43437452  0.03578842    -0.76700
O246        O  0.51770477  0.40528348  0.47373583    -0.86900
C247        C  0.51957479  0.51895347  0.10768453     0.87000
O248        O  0.60494607  0.43857430  0.47158223    -0.65100
O249        O  0.54113269  0.64972946  0.05256790    -0.84400
C250        C  0.60664760  0.45922168  0.00180090     0.87800
C251        C  0.49285383  0.40791683  0.00962764     1.09400
H252        H  0.57289087  0.56113508  0.03982076     0.41200
O253        O  0.54005812  0.55896005  0.03843876    -1.07100
O254        O  0.47850292  0.57845901  0.49230972    -0.63700
Ni255      Ni  0.54221179  0.55818250  0.48552596     1.26300
O256        O  0.58601805  0.47888768  0.02797211    -0.64000
O257        O  0.56406579  0.61972550  0.48737713    -0.76300
C258        C  0.55351716  0.53191126  0.41642418     0.87200
O259        O  0.53247864  0.56062309  0.43643781    -0.63400
Ni260      Ni  0.51552123  0.59823550  0.07465770     1.27400
Ni261      Ni  0.52276313  0.49622172  0.03816371     1.26100
H262        H  0.49031278  0.49467902  0.48412913     0.41700
O263        O  0.63781292  0.50572575  0.24949683    -0.78200
O264        O  0.45193256  0.61712675  0.26144829    -0.62900
O265        O  0.56016513  0.55014345  0.27654177    -1.09500
C266        C  0.46933407  0.42324361  0.26860233     1.08700
O267        O  0.39763636  0.56574865  0.27067182    -0.76100
O268        O  0.45228169  0.53316609  0.32042772    -0.63700
Ni269      Ni  0.61233842  0.56527184  0.24881457     1.34900
C270        C  0.48957667  0.51883792  0.33209254     0.87400
O271        O  0.53496010  0.63877678  0.28271838    -0.76700
O272        O  0.59559710  0.62798820  0.24703305    -0.86900
C273        C  0.41054249  0.60517876  0.26400404     0.87000
O274        O  0.57999794  0.54870259  0.20736565    -0.65100
O275        O  0.44507359  0.44968832  0.28801364    -0.84400
C276        C  0.54333629  0.56758597  0.19871514     0.87800
C277        C  0.57025012  0.65310475  0.26708437     1.09400
H278        H  0.47467538  0.52351840  0.22878211     0.41200
O279        O  0.48016740  0.52617742  0.25395784    -1.07100
O280        O  0.51589007  0.49161769  0.31418108    -0.63700
Ni281      Ni  0.53326852  0.49292418  0.26489620     1.26300
O282        O  0.52027910  0.59310058  0.21993740    -0.64000
O283        O  0.50494197  0.43646870  0.25292906    -0.76300
C284        C  0.62725365  0.46926777  0.26381109     0.87200
O285        O  0.58742219  0.46083115  0.27544325    -0.63400
Ni286      Ni  0.42565007  0.50949529  0.27862452     1.27400
Ni287      Ni  0.50626701  0.58366196  0.26856843     1.24100
H288        H  0.56815045  0.55327480  0.30100327     0.41700
C289        C  0.50184723  0.53309639  0.36784737    -0.13800
C290        C  0.54415999  0.52711185  0.37915304    -0.28900
H291        H  0.47549393  0.54748847  0.38543818     0.15300
H292        H  0.57015258  0.51148859  0.36187984     0.15800
C293        C  0.53616690  0.52345955  0.14351452    -0.13800
C294        C  0.52612870  0.56049360  0.16341238    -0.28900
H295        H  0.55892612  0.49792499  0.15282148     0.15300
H296        H  0.50276238  0.58559519  0.15423861     0.15800
C297        C  0.43434853  0.34253572  0.26431628    -0.10600
C298        C  0.45512125  0.37741421  0.26520101    -0.12200
C299        C  0.36778276  0.19101982  0.43808135    -0.15800
C300        C  0.36805291  0.19357332  0.40641878     0.08200
C301        C  0.36802636  0.19686166  0.36931248     0.10100
C302        C  0.36791632  0.19874234  0.33760165    -0.16700
C303        C  0.36802946  0.19460649  0.18827012    -0.15800
C304        C  0.36742484  0.19369796  0.15640946     0.08200
C305        C  0.36675533  0.19305835  0.11903437     0.10100
C306        C  0.36674546  0.19301698  0.08718556    -0.16700
C307        C  0.46849325  0.36737003  0.01645167    -0.10600
C308        C  0.44309922  0.33566151  0.01846457    -0.12200
C309        C  0.33882326  0.65575054  0.26056455    -0.10600
C310        C  0.37521613  0.63730812  0.26017249    -0.12200
C311        C  0.20657301  0.68392325  0.44415923    -0.15800
C312        C  0.19986785  0.68466273  0.41276872     0.08200
C313        C  0.19042052  0.68648376  0.37619158     0.10100
C314        C  0.18364129  0.68856657  0.34489735    -0.16700
C315        C  0.17587022  0.69809353  0.19590758    -0.15800
C316        C  0.17864374  0.69764872  0.16406527     0.08200
C317        C  0.18380282  0.69585117  0.12677172     0.10100
C318        C  0.18817386  0.69408116  0.09498996    -0.16700
C319        C  0.35181338  0.63385765  0.02200419    -0.10600
C320        C  0.39097434  0.61960501  0.02318231    -0.12200
C321        C  0.22874183  0.10901814  0.26294597    -0.10600
C322        C  0.19196125  0.09119254  0.26136193    -0.12200
C323        C  0.11784112  0.88917516  0.28570463    -0.10600
C324        C  0.13384942  0.85180537  0.28393219    -0.12200
C325        C  0.19043883  0.09217396  0.00456374    -0.10600
C326        C  0.22735981  0.10987938  0.00653239    -0.12200
C327        C  0.11876624  0.88410046  0.02320886    -0.10600
C328        C  0.13920955  0.84827648  0.02231653    -0.12200
C329        C  0.03740457  0.04021850  0.37510063    -0.13800
C330        C  0.00675377  0.03388650  0.40114351    -0.28900
H331        H  0.06813922  0.05971283  0.38044525     0.15300
H332        H  0.97670544  0.01323069  0.39610438     0.15800
C333        C  0.01604178  0.02360411  0.15198895    -0.13800
C334        C  0.04851182  0.02723940  0.12686684    -0.28900
H335        H  0.98485538  0.00506328  0.14616473     0.15300
H336        H  0.07911227  0.04690377  0.13230916     0.15800
C337        C  0.59307137  0.01319270  0.26678854    -0.15800
C338        C  0.56730285  0.04425263  0.26509490     0.08200
C339        C  0.53446931  0.07801642  0.26239426     0.10100
C340        C  0.50429057  0.10500426  0.26103978    -0.16700
C341        C  0.59868622  0.73645445  0.27097285    -0.10600
C342        C  0.58202121  0.69955027  0.27068807    -0.12200
C343        C  0.82686098  0.94856736  0.26202337    -0.10600
C344        C  0.86148612  0.97026708  0.26353291    -0.12200
C345        C  0.59280490  0.00708068  0.01733798    -0.15800
C346        C  0.56748407  0.03861392  0.01567133     0.08200
C347        C  0.53546807  0.07328992  0.01284910     0.10100
C348        C  0.50566408  0.10077334  0.01136513    -0.16700
C349        C  0.68574374  0.88053284  0.34106741    -0.15800
C350        C  0.68735915  0.87853287  0.37271078     0.08200
C351        C  0.68911640  0.87442745  0.40966527     0.10100
C352        C  0.68955437  0.87106463  0.44122552    -0.16700
C353        C  0.68286709  0.87282367  0.09094556    -0.15800
C354        C  0.68156945  0.87199669  0.12275062     0.08200
C355        C  0.68074412  0.87105379  0.16006420     0.10100
C356        C  0.68091448  0.87126483  0.19190170    -0.16700
C357        C  0.59818034  0.73278746  0.01307062    -0.10600
C358        C  0.57513407  0.69925120  0.01479013    -0.12200
C359        C  0.82986246  0.94601850  0.01966911    -0.10600
C360        C  0.86346584  0.96943874  0.02156233    -0.12200
C361        C  0.05991558  0.57758374  0.26521365    -0.15800
C362        C  0.03022452  0.54943354  0.26310908     0.08200
C363        C  0.99612786  0.51580781  0.26041426     0.10100
C364        C  0.96774047  0.48636095  0.25860733    -0.16700
C365        C  0.93260095  0.17462086  0.24052429    -0.10600
C366        C  0.91337100  0.21053564  0.24222019    -0.12200
C367        C  0.69816735  0.41550754  0.26546991    -0.10600
C368        C  0.66309419  0.43676741  0.26630282    -0.12200
C369        C  0.97458229  0.48819126  0.01027589    -0.15800
C370        C  0.00481017  0.51646446  0.01194740     0.08200
C371        C  0.04024595  0.54982988  0.01401619     0.10100
C372        C  0.07030917  0.57827996  0.01556801    -0.16700
C373        C  0.86055959  0.36160493  0.32953896    -0.15800
C374        C  0.86372643  0.36247769  0.36129562     0.08200
C375        C  0.86732594  0.36453357  0.39859548     0.10100
C376        C  0.86933811  0.36636796  0.43044195    -0.16700
C377        C  0.84885937  0.37606902  0.08028555    -0.15800
C378        C  0.84909092  0.37452894  0.11201697     0.08200
C379        C  0.85023294  0.37152202  0.14912557     0.10100
C380        C  0.85162262  0.36882964  0.18073883    -0.16700
C381        C  0.92236606  0.21256432  0.50367065    -0.10600
C382        C  0.94219442  0.17653399  0.50364466    -0.12200
C383        C  0.65410983  0.44508294  0.00488472    -0.10600
C384        C  0.69331627  0.43121980  0.00539719    -0.12200
C385        C  0.85326255  0.37359393  0.96984805     0.32700
C386        C  0.86811151  0.37040047  0.54105114     0.32700
C387        C  0.86298245  0.32839900  0.98662695    -0.03500
C388        C  0.88740113  0.40602362  0.98844607    -0.04300
C389        C  0.80707457  0.38829159  0.98706787    -0.04200
C390        C  0.87876065  0.32421510  0.52281132    -0.03500
C391        C  0.90338072  0.40138451  0.52398572    -0.04300
C392        C  0.82315513  0.38397813  0.52407186    -0.04200
C393        C  0.89303625  0.28257123  0.53308751    -0.29600
N394        N  0.88645052  0.26157448  0.00397744     0.16900
C395        C  0.87878206  0.28607821  0.97534605    -0.29600
H396        H  0.88645468  0.27483861  0.94841943     0.18900
C397        C  0.93666553  0.43131812  0.53541837    -0.28500
N398        N  0.95759626  0.44850089  0.50687385     0.15700
C399        C  0.92100703  0.43632001  0.97896952    -0.28500
C400        C  0.78016780  0.39856502  0.53523329    -0.28800
N401        N  0.75490148  0.40612901  0.50646180     0.16200
H402        H  0.76827542  0.40353275  0.56222636     0.18800
C403        C  0.76517084  0.40386646  0.97635210    -0.28800
H404        H  0.75508699  0.40807033  0.94949199     0.18800
H405        H  0.93122896  0.44398455  0.95244155     0.18800
H406        H  0.89849879  0.27314052  0.55980964     0.18900
H407        H  0.94502618  0.44000317  0.56248772     0.18800
C408        C  0.87017551  0.36290847  0.71922750     0.32700
C409        C  0.86741393  0.36072145  0.79087210     0.32700
C410        C  0.88350822  0.31788051  0.73429334    -0.03500
C411        C  0.90120278  0.39683469  0.73890321    -0.04300
C412        C  0.82360809  0.37211009  0.73687365    -0.04200
C413        C  0.88210323  0.31667143  0.77100205    -0.03500
C414        C  0.89983554  0.39574268  0.77551043    -0.04300
C415        C  0.82214059  0.37104173  0.77347977    -0.04200
C416        C  0.89306074  0.27339851  0.77925110    -0.29600
N417        N  0.90076001  0.24880523  0.74874151     0.16900
C418        C  0.89526086  0.27542698  0.72115034    -0.29600
H419        H  0.89953710  0.26466747  0.69371376     0.18900
C420        C  0.92884853  0.42902173  0.78828598    -0.28500
N421        N  0.94749922  0.44986499  0.76045952     0.15700
C422        C  0.93092563  0.43070975  0.73022785    -0.28500
C423        C  0.77899821  0.38403732  0.78450164    -0.28800
N424        N  0.75471095  0.39255805  0.75559247     0.16200
H425        H  0.76700530  0.38948867  0.81143649     0.18800
C426        C  0.78142306  0.38565887  0.72641883    -0.28800
H427        H  0.77168126  0.39263035  0.69992114     0.18800
H428        H  0.93985197  0.44071065  0.70399470     0.18800
H429        H  0.89532213  0.26071190  0.80535662     0.18900
H430        H  0.93587392  0.43746359  0.81563615     0.18800
C431        C  0.68325941  0.86774258  0.55130835     0.32700
C432        C  0.68777854  0.87116249  0.98052977     0.32700
C433        C  0.68335305  0.82097707  0.53186328    -0.03500
C434        C  0.64379878  0.89190963  0.53413417    -0.04300
C435        C  0.72523762  0.89079750  0.53578841    -0.04200
C436        C  0.66604484  0.82991820  0.99678784    -0.03500
C437        C  0.66123063  0.91019500  0.99866345    -0.04300
C438        C  0.73452986  0.87499522  0.99817845    -0.04200
C439        C  0.64172268  0.79256136  0.98503255    -0.29600
N440        N  0.64770768  0.75999365  0.50947063     0.16900
C441        C  0.65896851  0.78272667  0.53969415    -0.29600
H442        H  0.64581494  0.77486828  0.56546339     0.18900
C443        C  0.63695939  0.94647388  0.98825390    -0.28500
N444        N  0.58623910  0.93190661  0.51553652     0.15700
C445        C  0.60614623  0.91709058  0.54477570    -0.28500
C446        C  0.77173492  0.90085890  0.98893686    -0.28800
N447        N  0.78673706  0.92912598  0.52084408     0.16200
H448        H  0.77960056  0.91214859  0.96287485     0.18800
C449        C  0.76236299  0.91431000  0.54861613    -0.28800
H450        H  0.77095521  0.92037197  0.57597799     0.18800
H451        H  0.59506462  0.92542301  0.57157822     0.18800
H452        H  0.63439586  0.78267649  0.95797902     0.18900
H453        H  0.63095739  0.95549443  0.96150261     0.18800
C454        C  0.69049618  0.87120432  0.73025913     0.32700
C455        C  0.69001167  0.87337568  0.80164435     0.32700
C456        C  0.73786910  0.87099863  0.74677831    -0.03500
C457        C  0.66807712  0.91285304  0.74842962    -0.04300
C458        C  0.66570434  0.83227813  0.74727455    -0.04200
C459        C  0.73754222  0.87199131  0.78405127    -0.03500
C460        C  0.66763343  0.91401199  0.78551379    -0.04300
C461        C  0.66552865  0.83347051  0.78377902    -0.04200
C462        C  0.77589586  0.89561011  0.79448049    -0.29600
N463        N  0.79930463  0.90799844  0.76572112     0.16900
C464        C  0.77640435  0.89432668  0.73672533    -0.29600
H465        H  0.78413983  0.90526368  0.71053763     0.18900
C466        C  0.63029612  0.93935070  0.79656366    -0.28500
N467        N  0.60965926  0.95432971  0.76793405     0.15700
C468        C  0.63137577  0.93771006  0.73862108    -0.28500
C469        C  0.64072397  0.79710906  0.79437436    -0.28800
N470        N  0.62587545  0.77425872  0.76515913     0.16200
H471        H  0.63420696  0.78772762  0.82114637     0.18800
C472        C  0.64091444  0.79506373  0.73618607    -0.28800
H473        H  0.63455629  0.78374622  0.70926054     0.18800
H474        H  0.61844256  0.93936317  0.71224409     0.18800
H475        H  0.78315790  0.90772668  0.82108322     0.18900
H476        H  0.61637784  0.94253673  0.82311197     0.18800
O477        O  0.11897538  0.09795065  0.98049108    -0.78200
O478        O  0.92776577  0.01266985  0.50739214    -0.62900
O479        O  0.04583548  0.06481216  0.51827118    -1.09500
C480        C  0.09333251  0.91162005  0.52877437     1.08700
O481        O  0.93671507  0.96610884  0.55068233    -0.76100
O482        O  0.01419429  0.97137022  0.58683800    -0.63700
Ni483      Ni  0.05770346  0.12093827  0.98557083     1.34900
C484        C  0.04651558  0.99892002  0.59322063     0.87400
O485        O  0.95691928  0.09917004  0.51186411    -0.76700
O486        O  0.99969065  0.15181211  0.98826998    -0.86900
C487        C  0.91220117  0.98368507  0.52784429     0.87000
O488        O  0.04281154  0.08724440  0.94347645    -0.65100
O489        O  0.05288193  0.90538171  0.54050430    -0.84400
C490        C  0.01097455  0.05936511  0.93656871     0.87800
C491        C  0.95972378  0.14476229  0.00045912     1.09400
H492        H  0.01111283  0.97871472  0.98703810     0.41200
O493        O  0.01766697  0.98315125  0.51261134    -1.07100
O494        O  0.07411250  0.01201199  0.56966954    -0.63700
Ni495      Ni  0.07750363  0.00788669  0.51901508     1.26300
O496        O  0.98242433  0.04640395  0.95955247    -0.64000
O497        O  0.10762124  0.94974163  0.51880660    -0.76300
C498        C  0.14943883  0.06527804  0.50310062     0.87200
O499        O  0.13562309  0.03659400  0.52445097    -0.63400
Ni500      Ni  0.99637533  0.93919779  0.54458740     1.27400
Ni501      Ni  0.98619691  0.04040579  0.51216376     1.26100
H502        H  0.04657385  0.07961918  0.54141672     0.41700
O503        O  0.12303983  0.10475384  0.73729805    -0.78200
O504        O  0.93054415  0.00887210  0.75820330    -0.62900
O505        O  0.04333844  0.07190011  0.76807966    -1.09500
C506        C  0.10434786  0.93125465  0.78753912     1.08700
O507        O  0.94421805  0.95008301  0.79116278    -0.76100
O508        O  0.00587266  0.99399596  0.83352173    -0.63700
Ni509      Ni  0.05859428  0.11167397  0.73136422     1.34900
C510        C  0.03971270  0.01917456  0.84123321     0.87400
O511        O  0.95337288  0.09606391  0.76355130    -0.76700
O512        O  0.99607235  0.12731451  0.72251849    -0.86900
C513        C  0.91820598  0.97332061  0.77291228     0.87000
O514        O  0.05790963  0.06343273  0.69648334    -0.65100
O515        O  0.07098263  0.93287781  0.80918317    -0.84400
C516        C  0.02306536  0.03929715  0.68951630     0.87800
C517        C  0.96175979  0.12790308  0.74335902     1.09400
H518        H  0.02303174  0.97076563  0.74020892     0.41200
O519        O  0.02287441  0.98698066  0.76282438    -1.07100
O520        O  0.07408144  0.02296018  0.82036571    -0.63700
Ni521      Ni  0.07921986  0.01833000  0.76908783     1.26300
O522        O  0.98971798  0.03599401  0.71133717    -0.64000
O523        O  0.11301266  0.96340970  0.76786993    -0.76300
C524        C  0.14808301  0.08402215  0.75802699     0.87200
O525        O  0.13477602  0.05061199  0.77492148    -0.63400
Ni526      Ni  0.00833801  0.94577925  0.79878635     1.27400
Ni527      Ni  0.98674729  0.04080105  0.76259967     1.26100
H528        H  0.04348436  0.08875557  0.79042725     0.41700
C529        C  0.19537079  0.69056704  0.98450743     0.32700
C530        C  0.21055586  0.68528718  0.55486302     0.32700
C531        C  0.19853911  0.73007632  0.50216925    -0.03500
C532        C  0.17560346  0.65242920  0.50048589    -0.04300
C533        C  0.25558831  0.67076954  0.49909367    -0.04200
C534        C  0.19904146  0.73060543  0.53879380    -0.03500
C535        C  0.17589400  0.65279121  0.53707426    -0.04300
C536        C  0.25615480  0.67128792  0.53587124    -0.04200
C537        C  0.18060965  0.77157346  0.55096891    -0.29600
N538        N  0.16945975  0.79586545  0.52292861     0.16900
C539        C  0.17982126  0.77069051  0.49304162    -0.29600
H540        H  0.16544098  0.78850288  0.96578619     0.18900
C541        C  0.14282552  0.62234678  0.54729711    -0.28500
N542        N  0.12300208  0.60384229  0.51791423     0.15700
C543        C  0.12677812  0.62887298  0.98878313    -0.28500
C544        C  0.29873254  0.65515718  0.54490888    -0.28800
N545        N  0.32381762  0.64498997  0.51499104     0.16200
H546        H  0.31017362  0.65024119  0.57132715     0.18800
C547        C  0.28259773  0.66005573  0.99222411    -0.28800
H548        H  0.29513593  0.65440106  0.96545786     0.18800
H549        H  0.11957181  0.61972219  0.96157897     0.18800
H550        H  0.17325112  0.78172586  0.57816960     0.18900
H551        H  0.13393885  0.61425235  0.57399587     0.18800
C552        C  0.19015264  0.69533632  0.73429921     0.32700
C553        C  0.18802846  0.69351261  0.80610871     0.32700
C554        C  0.17694562  0.73995233  0.75426236    -0.03500
C555        C  0.15666257  0.66136820  0.75010157    -0.04300
C556        C  0.23520538  0.68376816  0.75156720    -0.04200
C557        C  0.17591150  0.73867517  0.79099319    -0.03500
C558        C  0.15566148  0.66057408  0.78680505    -0.04300
C559        C  0.23402787  0.68292146  0.78817101    -0.04200
C560        C  0.16551386  0.78117223  0.80445801    -0.29600
N561        N  0.16036098  0.80816866  0.77714316     0.16900
C562        C  0.16699634  0.78369848  0.74637423    -0.29600
H563        H  0.16473268  0.79675967  0.72039555     0.18900
C564        C  0.12403243  0.62868709  0.79601509    -0.28500
N565        N  0.10594440  0.61028683  0.76608332     0.15700
C566        C  0.12546462  0.62972635  0.73789453    -0.28500
C567        C  0.27673610  0.67108004  0.79864586    -0.28800
N568        N  0.30351042  0.66494645  0.76944891     0.16200
H569        H  0.28718625  0.66574027  0.82526348     0.18800
C570        C  0.27876881  0.67228423  0.74053400    -0.28800
H571        H  0.29115308  0.66805965  0.71361063     0.18800
H572        H  0.11738245  0.62160118  0.71068821     0.18800
H573        H  0.16191470  0.79175048  0.83198370     0.18900
H574        H  0.11468926  0.61966121  0.82241869     0.18800
C575        C  0.36603348  0.18946566  0.54825643     0.32700
C576        C  0.37149253  0.19466401  0.97689181     0.32700
C577        C  0.38650571  0.23159754  0.53240958    -0.03500
C578        C  0.39290696  0.15140878  0.52915269    -0.04300
C579        C  0.31884065  0.18507386  0.53133961    -0.04200
C580        C  0.37218539  0.24136842  0.99608598    -0.03500
C581        C  0.41088716  0.17026266  0.99373303    -0.04300
C582        C  0.32952619  0.17220094  0.99280761    -0.04200
C583        C  0.39808695  0.27822590  0.98763402    -0.29600
N584        N  0.42996099  0.28795868  0.51555877     0.16900
C585        C  0.41392708  0.26683738  0.54411070    -0.29600
H586        H  0.42353861  0.27491947  0.57100462     0.18900
C587        C  0.44845942  0.14551962  0.98251735    -0.28500
N588        N  0.43405258  0.09364040  0.50886222     0.15700
C589        C  0.41821854  0.11536124  0.53866256    -0.28500
C590        C  0.29236092  0.14852740  0.98036582    -0.28800
N591        N  0.26128401  0.14285339  0.51116414     0.16200
H592        H  0.28352711  0.14206481  0.95309381     0.18800
C593        C  0.28272196  0.15774283  0.54057709    -0.28800
H594        H  0.27597357  0.14533249  0.56645891     0.18800
H595        H  0.42499799  0.10578246  0.56515706     0.18800
H596        H  0.41119914  0.28506157  0.96163346     0.18900
H597        H  0.45915475  0.13757953  0.95556397     0.18800
C598        C  0.37416551  0.19232188  0.79796885     0.32700
C599        C  0.37331095  0.18671299  0.72647482     0.32700
C600        C  0.39763343  0.23097618  0.77951990    -0.03500
C601        C  0.39725672  0.15080567  0.78047803    -0.04300
C602        C  0.32645972  0.19043220  0.78190502    -0.04200
C603        C  0.39707698  0.22800084  0.74294860    -0.03500
C604        C  0.39694909  0.14778153  0.74379183    -0.04300
C605        C  0.32611615  0.18779002  0.74458679    -0.04200
C606        C  0.42108867  0.26409382  0.73094545    -0.29600
N607        N  0.43622698  0.28848955  0.75932543     0.16900
C608        C  0.42216379  0.26895319  0.78914304    -0.29600
H609        H  0.42915151  0.28156115  0.81565756     0.18900
C610        C  0.42122766  0.10987782  0.73313725    -0.28500
N611        N  0.43559825  0.09028115  0.76241890     0.15700
C612        C  0.42147156  0.11484832  0.79141402    -0.28500
C613        C  0.28833267  0.16269983  0.73517401    -0.28800
N614        N  0.26589796  0.15084558  0.76449495     0.16200
H615        H  0.28090289  0.14931684  0.70892973     0.18800
C616        C  0.28885500  0.16638926  0.79295083    -0.28800
H617        H  0.28188612  0.15639564  0.81951204     0.18800
H618        H  0.42992073  0.10804595  0.81822144     0.18800
H619        H  0.42702259  0.27215007  0.70379451     0.18900
H620        H  0.42946923  0.09844745  0.70634548     0.18800
O621        O  0.55622710  0.51613109  0.93343362    -0.78200
O622        O  0.54895540  0.48362310  0.58206809    -0.62900
O623        O  0.50560594  0.50648276  0.99172451    -1.09500
C624        C  0.57063727  0.64762830  0.51355010     1.08700
O625        O  0.50338072  0.54144635  0.59068103    -0.76100
O626        O  0.47226893  0.60387004  0.54825157    -0.63700
Ni627      Ni  0.52872274  0.46638312  0.95541422     1.34900
C628        C  0.45553391  0.59707625  0.51800035     0.87400
O629        O  0.51680717  0.42560135  0.53180899    -0.76700
O630        O  0.50064484  0.41623004  0.97742581    -0.86900
C631        C  0.53004834  0.51263406  0.60279028     0.87000
O632        O  0.58737394  0.45082021  0.97273133    -0.65100
O633        O  0.55854436  0.64072396  0.54530013    -0.84400
C634        C  0.62252819  0.44821106  0.50108341     0.87800
C635        C  0.50819056  0.39807842  0.50591282     1.09400
H636        H  0.58815418  0.55146965  0.53528405     0.41200
O637        O  0.55539815  0.54979804  0.53302323    -1.07100
O638        O  0.46079793  0.58805847  0.00065155    -0.63700
Ni639      Ni  0.52405744  0.56891771  0.99174087     1.26300
O640        O  0.60063713  0.46909907  0.52605316    -0.64000
O641        O  0.54501054  0.63041029  0.99429763    -0.76300
C642        C  0.52987769  0.54566729  0.92203796     0.87200
O643        O  0.51091558  0.57388650  0.94345358    -0.63400
Ni644      Ni  0.53038933  0.59082237  0.56778763     1.27400
Ni645      Ni  0.53711828  0.48736693  0.53354061     1.26100
H646        H  0.47269733  0.50492078  0.99088200     0.41700
O647        O  0.65115069  0.50611162  0.74370118    -0.78200
O648        O  0.45966508  0.60782430  0.76123380    -0.62900
O649        O  0.57118178  0.54426481  0.77114639    -1.09500
C650        C  0.48477616  0.41420075  0.76163459     1.08700
O651        O  0.41071088  0.55716584  0.78184733    -0.76100
O652        O  0.47407272  0.51792810  0.82180327    -0.63700
Ni653      Ni  0.62117732  0.56333181  0.74245533     1.34900
C654        C  0.51237414  0.50108565  0.82903805     0.87400
O655        O  0.54342328  0.63288376  0.77878396    -0.76700
O656        O  0.60026729  0.62457737  0.73965853    -0.86900
C657        C  0.42010820  0.59588830  0.77100838     0.87000
O658        O  0.58758975  0.54393525  0.70235239    -0.65100
O659        O  0.46060129  0.43806619  0.78330761    -0.84400
C660        C  0.54932605  0.56067976  0.69470651     0.87800
C661        C  0.57619964  0.64881260  0.76113219     1.09400
H662        H  0.48035068  0.51695997  0.72851714     0.41200
O663        O  0.48975630  0.51877780  0.75276037    -1.07100
O664        O  0.53576149  0.47704129  0.80686848    -0.63700
Ni665      Ni  0.54532321  0.48654311  0.75752513     1.26300
O666        O  0.52566437  0.58505747  0.71650876    -0.64000
O667        O  0.51756637  0.43040826  0.74418338    -0.76300
C668        C  0.64113841  0.46705888  0.75358328     0.87200
O669        O  0.60113994  0.45492928  0.76192412    -0.63400
Ni670      Ni  0.44009471  0.49960888  0.78173055     1.27400
Ni671      Ni  0.51565885  0.57651143  0.76597038     1.24100
H672        H  0.58030240  0.54601565  0.79551838     0.41700
C673        C  0.53023604  0.50823639  0.86417927    -0.13800
C674        C  0.51655089  0.54302680  0.88534541    -0.28900
H675        H  0.55530347  0.48434081  0.87272524     0.15300
H676        H  0.49236366  0.56753949  0.87643823     0.15800
C677        C  0.54411160  0.51692137  0.63929153    -0.13800
C678        C  0.53162926  0.55292717  0.65955067    -0.28900
H679        H  0.56774458  0.49228547  0.64878738     0.15300
H680        H  0.50717165  0.57703285  0.65042328     0.15800
C681        C  0.45882203  0.32984800  0.75810831    -0.10600
C682        C  0.47454378  0.36723731  0.75817577    -0.12200
C683        C  0.37287328  0.19488383  0.93797562    -0.15800
C684        C  0.37387857  0.19547895  0.90614471     0.08200
C685        C  0.37475467  0.19582866  0.86877941     0.10100
C686        C  0.37496697  0.19515161  0.83690657    -0.16700
C687        C  0.37270104  0.18489316  0.68759318    -0.15800
C688        C  0.37079246  0.18549994  0.65586785     0.08200
C689        C  0.36818240  0.18739815  0.61874958     0.10100
C690        C  0.36655058  0.18893218  0.58706660    -0.16700
C691        C  0.48423715  0.35725834  0.51302740    -0.10600
C692        C  0.46007488  0.32466236  0.51570755    -0.12200
C693        C  0.34737791  0.64661626  0.76907849    -0.10600
C694        C  0.38307393  0.62683554  0.76949504    -0.12200
C695        C  0.19601748  0.68987218  0.94561145    -0.15800
C696        C  0.19386901  0.69041111  0.91385926     0.08200
C697        C  0.19027586  0.69152779  0.87669144     0.10100
C698        C  0.18801055  0.69247768  0.84496421    -0.16700
C699        C  0.19288971  0.69521447  0.69518704    -0.15800
C700        C  0.19787324  0.69295179  0.66331617     0.08200
C701        C  0.20460134  0.68931293  0.62593778     0.10100
C702        C  0.20910831  0.68659067  0.59403299    -0.16700
C703        C  0.36902298  0.62690871  0.51342263    -0.10600
C704        C  0.40817089  0.61206923  0.51340033    -0.12200
C705        C  0.22792173  0.12240334  0.76473285    -0.10600
C706        C  0.19319386  0.10097529  0.76284523    -0.12200
C707        C  0.13118861  0.89091706  0.78440344    -0.10600
C708        C  0.14665923  0.85337539  0.78064854    -0.12200
C709        C  0.19283342  0.08693166  0.50733834    -0.10600
C710        C  0.22553076  0.11147619  0.50968562    -0.12200
C711        C  0.12377246  0.87259964  0.52639609    -0.10600
C712        C  0.14573024  0.83759829  0.52466244    -0.12200
C713        C  0.04073043  0.04349972  0.87600210    -0.13800
C714        C  0.00723935  0.03957483  0.90038401    -0.28900
H715        H  0.07075462  0.06369753  0.88216366     0.15300
H716        H  0.97768740  0.01857618  0.89447317     0.15800
C717        C  0.01960460  0.01549267  0.65460000    -0.13800
C718        C  0.05228520  0.01814499  0.62944581    -0.28900
H719        H  0.98846909  0.99675893  0.64901910     0.15300
H720        H  0.08294779  0.03774762  0.63479715     0.15800
C721        C  0.56828258  0.97738233  0.76808629    -0.15800
C722        C  0.53356388  0.99847057  0.76691839     0.08200
C723        C  0.49566523  0.02671264  0.76451673     0.10100
C724        C  0.46649324  0.05472491  0.76292436    -0.16700
C725        C  0.60283891  0.73302300  0.76496627    -0.10600
C726        C  0.58674101  0.69575220  0.76432254    -0.12200
C727        C  0.83786326  0.93574104  0.76636348    -0.10600
C728        C  0.87288091  0.95673889  0.76834777    -0.12200
C729        C  0.54992009  0.96226663  0.51486955    -0.15800
C730        C  0.52031234  0.98990548  0.51270551     0.08200
C731        C  0.48826252  0.02459356  0.50957108     0.10100
C732        C  0.46266457  0.05601453  0.50821172    -0.16700
C733        C  0.68956452  0.87354674  0.84060629    -0.15800
C734        C  0.68921425  0.87271107  0.87243289     0.08200
C735        C  0.68887695  0.87137641  0.90975879     0.10100
C736        C  0.68855057  0.87063775  0.94158651    -0.16700
C737        C  0.68246007  0.86773422  0.59026793    -0.15800
C738        C  0.68434358  0.86807919  0.62210197     0.08200
C739        C  0.68759390  0.86877212  0.65941853     0.10100
C740        C  0.68981252  0.86962826  0.69124839    -0.16700
C741        C  0.61899001  0.72203183  0.50734608    -0.10600
C742        C  0.59523281  0.68871978  0.50777477    -0.12200
C743        C  0.82831081  0.95239331  0.52313563    -0.10600
C744        C  0.86545366  0.96971027  0.52536754    -0.12200
C745        C  0.07185353  0.57691129  0.76475747    -0.15800
C746        C  0.04248234  0.54824550  0.76412360     0.08200
C747        C  0.00835347  0.51435115  0.76346590     0.10100
C748        C  0.97987581  0.48482990  0.76240759    -0.16700
C749        C  0.93293331  0.16695709  0.74442053    -0.10600
C750        C  0.91598510  0.20400046  0.74622112    -0.12200
C751        C  0.71221479  0.41384011  0.75602156    -0.10600
C752        C  0.67770709  0.43558350  0.75546159    -0.12200
C753        C  0.99306331  0.48089043  0.50826975    -0.15800
C754        C  0.02321511  0.50903322  0.51075173     0.08200
C755        C  0.05828060  0.54238856  0.51435403     0.10100
C756        C  0.08812745  0.57084854  0.51673303    -0.16700
C757        C  0.86524845  0.36071743  0.82979802    -0.15800
C758        C  0.86232649  0.36335395  0.86167003     0.08200
C759        C  0.85849604  0.36792816  0.89903050     0.10100
C760        C  0.85560643  0.37153620  0.93088491    -0.16700
C761        C  0.86810609  0.37110154  0.57990404    -0.15800
C762        C  0.86906763  0.36982961  0.61164149     0.08200
C763        C  0.87042068  0.36713494  0.64878230     0.10100
C764        C  0.87101171  0.36476005  0.68045730    -0.16700
C765        C  0.90771439  0.21866898  0.00335458    -0.10600
C766        C  0.92857603  0.18309678  0.00240582    -0.12200
C767        C  0.66969329  0.43450032  0.50586113    -0.10600
C768        C  0.70912773  0.42157833  0.50679908    -0.12200
loop_ 
_geom_bond_atom_site_label_1 
_geom_bond_atom_site_label_2 
_geom_bond_distance 
_geom_bond_site_symmetry_2 
_ccdc_geom_bond_type 
C1            C3   1.544       .  S
C1            C5   1.545       .  S
C1            C4   1.545       .  S
C1          C376   1.482       .  S
C2            C6   1.541       .  S
C2            C8   1.543       .  S
C2            C7   1.540       .  S
C2          C377   1.477       .  S
C3           C11   1.387       .  A
C3          C390   1.393       .  A
C4           C15   1.387       .  A
C4          C391   1.395       .  A
C5           C19   1.386       .  A
C5          C392   1.394       .  A
C6            C9   1.386       .  A
C6          C387   1.392   1_554  A
C7           C13   1.384       .  A
C7          C388   1.394   1_554  A
C8           C16   1.386       .  A
C8          C389   1.395   1_554  A
C9           H22   1.082       .  S
C9          N394   1.361       .  A
N10          C11   1.362       .  A
N10         C393   1.359       .  A
N10         C381   1.416       .  S
C11          H12   1.082       .  S
C13          H23   1.082       .  S
C13          N14   1.360       .  A
N14         C399   1.362   1_554  A
N14         C369   1.418       .  S
C15          H21   1.082       .  S
C15         N398   1.362       .  A
C16          H18   1.082       .  S
C16          N17   1.361       .  A
N17         C403   1.363   1_554  A
N17         C384   1.421       .  S
C19          H20   1.082       .  S
C19         N401   1.362       .  A
C24          C26   1.534       .  S
C24          C28   1.534       .  S
C24          C27   1.533       .  S
C24         C380   1.478       .  S
C25          C29   1.535       .  S
C25          C31   1.535       .  S
C25          C30   1.532       .  S
C25         C373   1.481       .  S
C26          C34   1.377       .  A
C26          C29   1.398       .  A
C27          C38   1.378       .  A
C27          C30   1.394       .  A
C28          C42   1.375       .  A
C28          C31   1.397       .  A
C29          C32   1.375       .  A
C30          C36   1.375       .  A
C31          C39   1.378       .  A
C32          H45   1.083       .  S
C32          N33   1.356       .  A
N33          C34   1.357       .  A
N33         C366   1.402       .  S
C34          H35   1.083       .  S
C36          H46   1.083       .  S
C36          N37   1.355       .  A
N37          C38   1.357       .  A
N37         C364   1.402       .  S
C38          H44   1.083       .  S
C39          H41   1.083       .  S
C39          N40   1.357       .  A
N40          C42   1.357       .  A
N40         C367   1.403       .  S
C42          H43   1.083       .  S
C47          C49   1.528       .  S
C47          C51   1.538       .  S
C47          C50   1.531       .  S
C47         C353   1.481       .  S
C48          C52   1.539       .  S
C48          C54   1.529       .  S
C48          C53   1.526       .  S
C48         C352   1.478       .  S
C49          C57   1.374       .  A
C49         C436   1.392   1_554  A
C50          C61   1.376       .  A
C50         C437   1.394   1_554  A
C51          C65   1.381       .  A
C51         C438   1.418   1_554  A
C52          C55   1.384       .  A
C52         C433   1.417       .  A
C53          C59   1.370       .  A
C53         C434   1.394       .  A
C54          C62   1.377       .  A
C54         C435   1.390       .  A
C55          H68   1.083       .  S
C55         N440   1.351       .  A
N56          C57   1.355       .  A
N56         C439   1.356   1_554  A
N56         C357   1.402       .  S
C57          H58   1.083       .  S
C59          H69   1.083       .  S
C59         N444   1.352       .  A
N60          C61   1.356       .  A
N60         C443   1.353   1_554  A
N60         C345   1.396   1_565  S
C61          H67   1.083       .  S
C62          H64   1.083       .  S
C62         N447   1.356       .  A
N63          C65   1.349       .  A
N63         C446   1.350   1_554  A
N63         C359   1.402       .  S
C65          H66   1.083       .  S
C70          C72   1.536       .  S
C70          C74   1.527       .  S
C70          C73   1.525       .  S
C70         C356   1.480       .  S
C71          C75   1.535       .  S
C71          C77   1.523       .  S
C71          C76   1.531       .  S
C71         C349   1.478       .  S
C72          C80   1.381       .  A
C72          C75   1.420       .  A
C73          C84   1.368       .  A
C73          C76   1.395       .  A
C74          C88   1.373       .  A
C74          C77   1.391       .  A
C75          C78   1.378       .  A
C76          C82   1.374       .  A
C77          C85   1.372       .  A
C78          H91   1.083       .  S
C78          N79   1.347       .  A
N79          C80   1.347       .  A
N79         C343   1.397       .  S
C80          H81   1.083       .  S
C82          H92   1.082       .  S
C82          N83   1.356       .  A
N83          C84   1.352       .  A
N83         C337   1.393   1_565  S
C84          H90   1.083       .  S
C85          H87   1.083       .  S
C85          N86   1.352       .  A
N86          C88   1.355       .  A
N86         C341   1.393       .  S
C88          H89   1.083       .  S
O93         Ni99   1.917       .  S
O93         C498   1.265       .  A
O94        Ni117   1.914       .  S
O94         C103   1.267   1_545  A
O95        Ni117   1.919   1_455  S
O95        Ni111   1.938       .  S
O95        Ni483   1.924   1_554  S
O95         H118   0.966       .  S
C96         O113   1.281       .  A
C96         O105   1.275       .  A
C96         C327   1.459       .  S
O97        Ni116   1.920       .  S
O97         C103   1.266       .  A
O98        Ni116   1.905   1_455  S
O98         C100   1.267   1_565  A
Ni99        O102   1.928       .  S
Ni99        O104   1.905       .  S
Ni99        O479   1.918       .  S
C100        O110   1.268       .  A
C100        C334   1.474       .  S
O101       Ni117   1.940       .  S
O101        C491   1.277       .  A
O102        C107   1.275   1_455  A
C103        C360   1.434       .  S
O104        C106   1.268       .  A
O105       Ni116   1.931   1_455  S
C106        O112   1.269   1_455  A
C106        C330   1.476       .  S
C107        O485   1.282       .  A
C107        C382   1.456       .  S
H108        O493   0.966       .  S
O109       Ni117   1.929   1_465  S
O109       Ni111   1.907   1_565  S
O109       Ni116   1.920   1_455  S
O109        H492   0.966   1_554  S
O110       Ni111   1.922       .  S
Ni111       O115   1.905       .  S
Ni111       O113   1.946   1_545  S
O112       Ni501   1.923       .  S
C114        O115   1.265       .  A
C114        O477   1.268   1_554  A
C114        C325   1.431       .  S
Ni117       O496   1.930   1_554  S
O119       Ni125   1.916       .  S
O119        C140   1.268       .  A
O120       Ni143   1.906       .  S
O120        C129   1.266   1_545  A
O121       Ni125   1.922       .  S
O121       Ni143   1.909   1_455  S
O121       Ni137   1.919       .  S
O121        H144   0.966       .  S
C122        O139   1.266       .  A
C122        O131   1.267       .  A
C122        C323   1.431       .  S
O123       Ni142   1.913       .  S
O123        C129   1.267       .  A
O124       Ni142   1.902       .  S
O124        C126   1.270   1_665  A
Ni125       O128   1.931   1_455  S
Ni125       O130   1.902       .  S
C126        O136   1.277       .  A
C126        C329   1.475       .  S
O127       Ni143   1.907       .  S
O127        C133   1.266       .  A
O128        C133   1.269       .  A
C129        C344   1.427       .  S
O130        C132   1.270       .  A
O131       Ni142   1.928   1_455  S
C132        O138   1.276   1_455  A
C132        C333   1.474       .  S
C133        C365   1.434       .  S
H134        O135   0.966       .  S
O135       Ni143   1.916   1_465  S
O135       Ni137   1.905   1_565  S
O135       Ni142   1.921   1_455  S
O136       Ni137   1.946       .  S
Ni137       O141   1.902       .  S
Ni137       O139   1.908   1_545  S
O138       Ni143   1.944       .  S
C140        O141   1.265       .  A
C140        C322   1.426       .  S
C145        C531   1.542       .  S
C145        C533   1.551       .  S
C145        C532   1.536       .  S
C145        C311   1.485       .  S
C146        C150   1.543       .  S
C146        C152   1.549       .  S
C146        C151   1.542       .  S
C146        C318   1.481       .  S
C147        C529   1.542   1_554  S
C147        C155   1.387   1_554  A
C147        C150   1.392       .  A
C148        C529   1.541   1_554  S
C148        C151   1.392       .  A
C148        C543   1.385   1_554  A
C149        C529   1.548   1_554  S
C149        C152   1.396       .  A
C149        C547   1.390   1_554  A
C150        C153   1.387       .  A
C151        C157   1.386       .  A
C152        C160   1.390       .  A
C153        H166   1.082       .  S
C153        N154   1.362       .  A
N154        C155   1.361   1_554  A
N154        C328   1.419       .  S
C155        H540   1.082       .  S
H156        C539   1.082       .  S
C157        H167   1.082       .  S
C157        N158   1.361       .  A
N158        C543   1.360   1_554  A
N158        C372   1.418       .  S
C159        C532   1.380       .  A
C159        H165   1.083       .  S
C159        N542   1.357       .  A
C160        H162   1.082       .  S
C160        N161   1.364       .  A
N161        C547   1.363   1_554  A
N161        C319   1.426       .  S
C163        C533   1.392       .  A
C163        H164   1.082       .  S
C163        N545   1.364       .  A
C168        C170   1.532       .  S
C168        C172   1.526       .  S
C168        C171   1.532       .  S
C168        C315   1.481       .  S
C169        C173   1.536       .  S
C169        C175   1.530       .  S
C169        C174   1.539       .  S
C169        C314   1.486       .  S
C170        C178   1.373       .  A
C170        C173   1.400       .  A
C171        C182   1.375       .  A
C171        C174   1.399       .  A
C172        C186   1.373       .  A
C172        C175   1.394       .  A
C173        C176   1.376       .  A
C174        C180   1.379       .  A
C175        C183   1.372       .  A
C176        H189   1.083       .  S
C176        N177   1.357       .  A
N177        C178   1.355       .  A
N177        C324   1.400       .  S
C178        H179   1.083       .  S
C180        H190   1.082       .  S
C180        N181   1.358       .  A
N181        C182   1.355       .  A
N181        C361   1.403       .  S
C182        H188   1.083       .  S
C183        H185   1.083       .  S
C183        N184   1.355       .  A
N184        C186   1.353       .  A
N184        C309   1.395       .  S
C186        H187   1.083       .  S
C191        C193   1.537       .  S
C191        C195   1.530       .  S
C191        C194   1.527       .  S
C191        C306   1.481       .  S
C192        C196   1.527       .  S
C192        C198   1.537       .  S
C192        C197   1.532       .  S
C192        C299   1.479       .  S
C193        C201   1.383       .  A
C193        C580   1.419   1_554  A
C194        C205   1.370       .  A
C194        C581   1.394   1_554  A
C195        C209   1.376       .  A
C195        C582   1.392   1_554  A
C196        C199   1.373       .  A
C196        C577   1.392       .  A
C197        C203   1.377       .  A
C197        C578   1.393       .  A
C198        C206   1.380       .  A
C198        C579   1.418       .  A
C199        H212   1.083       .  S
C199        N584   1.353       .  A
N200        C201   1.349       .  A
N200        C583   1.347   1_554  A
N200        C308   1.399       .  S
C201        H202   1.083       .  S
C203        H213   1.082       .  S
C203        N588   1.357       .  A
N204        C205   1.353       .  A
N204        C587   1.356   1_554  A
N204        C348   1.396       .  S
C205        H211   1.083       .  S
C206        H208   1.083       .  S
C206        N591   1.348       .  A
N207        C209   1.356       .  A
N207        C590   1.355   1_554  A
N207        C326   1.400       .  S
C209        H210   1.083       .  S
C214        C216   1.536       .  S
C214        C218   1.525       .  S
C214        C217   1.525       .  S
C214        C302   1.479       .  S
C215        C219   1.536       .  S
C215        C221   1.526       .  S
C215        C220   1.530       .  S
C215        C303   1.481       .  S
C216        C224   1.379       .  A
C216        C219   1.420       .  A
C217        C228   1.369       .  A
C217        C220   1.394       .  A
C218        C232   1.374       .  A
C218        C221   1.391       .  A
C219        C222   1.378       .  A
C220        C226   1.374       .  A
C221        C229   1.372       .  A
C222        H235   1.083       .  S
C222        N223   1.346       .  A
N223        C224   1.348       .  A
N223        C297   1.395       .  S
C224        H225   1.083       .  S
C226        H236   1.083       .  S
C226        N227   1.355       .  A
N227        C228   1.352       .  A
N227        C340   1.393       .  S
C228        H234   1.083       .  S
C229        H231   1.083       .  S
C229        N230   1.354       .  A
N230        C232   1.354       .  A
N230        C321   1.396       .  S
C232        H233   1.083       .  S
O237       Ni243   1.908       .  S
O237        C258   1.263       .  A
O238       Ni261   1.895       .  S
O238        C247   1.261       .  A
O239       Ni243   1.901       .  S
O239       Ni255   1.930       .  S
O239       Ni645   1.885       .  S
O239        H262   0.967       .  S
C240        O249   1.279       .  A
C240        O641   1.279   1_554  A
C240        C358   1.434       .  S
O241       Ni260   1.903       .  S
O241        C247   1.268       .  A
O242       Ni260   1.922       .  S
O242        C244   1.267       .  A
Ni243       O246   1.923       .  S
Ni243       O248   1.912       .  S
C244        O638   1.276       .  A
C244        C320   1.469       .  S
O245       Ni261   1.923       .  S
O245        C251   1.278       .  A
O246        C635   1.279       .  A
C247        C293   1.456       .  S
O248        C634   1.264       .  A
O249       Ni260   1.924       .  S
C250        O256   1.274       .  A
C250        O632   1.266   1_554  A
C250        C383   1.462       .  S
C251        O630   1.278   1_554  A
C251        C307   1.430       .  S
H252        O253   0.966       .  S
O253       Ni261   1.929       .  S
O253       Ni260   1.895       .  S
O253       Ni639   1.884   1_554  S
O254       Ni255   1.972       .  S
O254        C628   1.281       .  A
Ni255       O259   1.900       .  S
Ni255       O257   1.934       .  S
Ni255       O637   1.884       .  S
O256       Ni261   1.952       .  S
O257        C624   1.282       .  A
C258        O259   1.269       .  A
C258        C290   1.450       .  S
Ni261       O623   1.885   1_554  S
O263       Ni269   1.922       .  S
O263        C284   1.270       .  A
O264       Ni287   1.909       .  S
O264        C273   1.266       .  A
O265       Ni269   1.907       .  S
O265       Ni287   1.906       .  S
O265       Ni281   1.908       .  S
O265        H288   0.964       .  S
C266        O283   1.264       .  A
C266        O275   1.263       .  A
C266        C298   1.423       .  S
O267       Ni286   1.902       .  S
O267        C273   1.265       .  A
O268       Ni286   1.890       .  S
O268        C270   1.269       .  A
Ni269       O272   1.932       .  S
Ni269       O274   1.900       .  S
C270        O280   1.282       .  A
C270        C289   1.457       .  S
O271       Ni287   1.898       .  S
O271        C277   1.267       .  A
O272        C277   1.272       .  A
C273        C310   1.424       .  S
O274        C276   1.269       .  A
O275       Ni286   1.918       .  S
C276        O282   1.268       .  A
C276        C294   1.450       .  S
C277        C342   1.422       .  S
H278        O279   0.974       .  S
O279       Ni287   1.931       .  S
O279       Ni281   1.908       .  S
O279       Ni286   1.914       .  S
O280       Ni281   1.937       .  S
Ni281       O285   1.912       .  S
Ni281       O283   1.908       .  S
O282       Ni287   1.922       .  S
C284        O285   1.270       .  A
C284        C368   1.435       .  S
C289        C290   1.335       .  D
C289        H291   1.088       .  S
C290        H292   1.087       .  S
C293        C294   1.336       .  D
C293        H295   1.087       .  S
C294        H296   1.087       .  S
C297        C298   1.200       .  T
C299        C300   1.211       .  T
C300        C301   1.420       .  S
C301        C302   1.211       .  T
C303        C304   1.212       .  T
C304        C305   1.422       .  S
C305        C306   1.212       .  T
C307        C308   1.203       .  T
C309        C310   1.200       .  T
C311        C312   1.216       .  T
C312        C313   1.428       .  S
C313        C314   1.216       .  T
C315        C316   1.213       .  T
C316        C317   1.423       .  S
C317        C318   1.213       .  T
C319        C320   1.226       .  T
C321        C322   1.201       .  T
C323        C324   1.204       .  T
C325        C326   1.204       .  T
C327        C328   1.221       .  T
C329        C330   1.345       .  D
C329        H331   1.087       .  S
C330        H332   1.087   1_455  S
C333        C334   1.344       .  D
C333        H335   1.087   1_455  S
C334        H336   1.087       .  S
C337        C338   1.198       .  T
C338        C339   1.400       .  S
C339        C340   1.198       .  T
C341        C342   1.198       .  T
C343        C344   1.202       .  T
C345        C346   1.201       .  T
C346        C347   1.404       .  S
C347        C348   1.201       .  T
C349        C350   1.211       .  T
C350        C351   1.420       .  S
C351        C352   1.210       .  T
C353        C354   1.212       .  T
C354        C355   1.422       .  S
C355        C356   1.212       .  T
C357        C358   1.206       .  T
C359        C360   1.206       .  T
C361        C362   1.206       .  T
C362        C363   1.413   1_455  S
C363        C364   1.206       .  T
C365        C366   1.206       .  T
C367        C368   1.207       .  T
C369        C370   1.220   1_655  T
C370        C371   1.434       .  S
C371        C372   1.220       .  T
C373        C374   1.213       .  T
C374        C375   1.424       .  S
C375        C376   1.213       .  T
C377        C378   1.211       .  T
C378        C379   1.421       .  S
C379        C380   1.211       .  T
C381        C382   1.219       .  T
C383        C384   1.222       .  T
C385        C387   1.543       .  S
C385        C389   1.548       .  S
C385        C388   1.545       .  S
C385        C760   1.482       .  S
C386        C390   1.537       .  S
C386        C392   1.541       .  S
C386        C391   1.538       .  S
C386        C761   1.478       .  S
C387        C395   1.386       .  A
C388        C399   1.387       .  A
C389        C403   1.388       .  A
C390        C393   1.383       .  A
C391        C397   1.381       .  A
C392        C400   1.386       .  A
C393        H406   1.083       .  S
N394        C395   1.361   1_554  A
N394        C765   1.419       .  S
C395        H396   1.082       .  S
C397        H407   1.083       .  S
C397        N398   1.358       .  A
N398        C753   1.415       .  S
C399        H405   1.082       .  S
C400        H402   1.082       .  S
C400        N401   1.361       .  A
N401        C768   1.418       .  S
C403        H404   1.082       .  S
C408        C410   1.534       .  S
C408        C412   1.529       .  S
C408        C411   1.534       .  S
C408        C764   1.479       .  S
C409        C413   1.538       .  S
C409        C415   1.532       .  S
C409        C414   1.536       .  S
C409        C757   1.482       .  S
C410        C418   1.376       .  A
C410        C413   1.399       .  A
C411        C422   1.377       .  A
C411        C414   1.395       .  A
C412        C426   1.373       .  A
C412        C415   1.395       .  A
C413        C416   1.377       .  A
C414        C420   1.379       .  A
C415        C423   1.375       .  A
C416        H429   1.082       .  S
C416        N417   1.358       .  A
N417        C418   1.356       .  A
N417        C750   1.403       .  S
C418        H419   1.083       .  S
C420        H430   1.083       .  S
C420        N421   1.358       .  A
N421        C422   1.357       .  A
N421        C748   1.405       .  S
C422        H428   1.083       .  S
C423        H425   1.083       .  S
C423        N424   1.356       .  A
N424        C426   1.355       .  A
N424        C751   1.397       .  S
C426        H427   1.083       .  S
C431        C433   1.542       .  S
C431        C435   1.529       .  S
C431        C434   1.535       .  S
C431        C737   1.483       .  S
C432        C436   1.531       .  S
C432        C438   1.539       .  S
C432        C437   1.528       .  S
C432        C736   1.481       .  S
C433        C441   1.382       .  A
C434        C445   1.378       .  A
C435        C449   1.376       .  A
C436        C439   1.378       .  A
C437        C443   1.370       .  A
C438        C446   1.382       .  A
C439        H452   1.082       .  S
N440        C441   1.352       .  A
N440        C741   1.405       .  S
C441        H442   1.083       .  S
C443        H453   1.083       .  S
N444        C445   1.358       .  A
N444        C729   1.398       .  S
C445        H451   1.082       .  S
C446        H448   1.083       .  S
N447        C449   1.355       .  A
N447        C743   1.401       .  S
C449        H450   1.083       .  S
C454        C456   1.535       .  S
C454        C458   1.528       .  S
C454        C457   1.531       .  S
C454        C740   1.484       .  S
C455        C459   1.534       .  S
C455        C461   1.523       .  S
C455        C460   1.534       .  S
C455        C733   1.483       .  S
C456        C464   1.381       .  A
C456        C459   1.417       .  A
C457        C468   1.373       .  A
C457        C460   1.410       .  A
C458        C472   1.375       .  A
C458        C461   1.388       .  A
C459        C462   1.378       .  A
C460        C466   1.377       .  A
C461        C469   1.373       .  A
C462        H475   1.083       .  S
C462        N463   1.347       .  A
N463        C464   1.348       .  A
N463        C727   1.397       .  S
C464        H465   1.083       .  S
C466        H476   1.083       .  S
C466        N467   1.350       .  A
N467        C468   1.348       .  A
N467        C721   1.394       .  S
C468        H474   1.083       .  S
C469        H471   1.083       .  S
C469        N470   1.353       .  A
N470        C472   1.356       .  A
N470        C725   1.397       .  S
C472        H473   1.083       .  S
O477       Ni483   1.926       .  S
O478       Ni501   1.906       .  S
O478        C487   1.266   1_545  A
O479       Ni501   1.905   1_455  S
O479       Ni495   1.932       .  S
O479        H502   0.966       .  S
C480        O497   1.278       .  A
C480        O489   1.275       .  A
C480        C711   1.462       .  S
O481       Ni500   1.930       .  S
O481        C487   1.270       .  A
O482       Ni500   1.912   1_455  S
O482        C484   1.270       .  A
Ni483       O486   1.932   1_455  S
Ni483       O488   1.905       .  S
C484        O494   1.270   1_565  A
C484        C718   1.480   1_565  S
O485       Ni501   1.947       .  S
O486        C491   1.272   1_556  A
C487        C744   1.434       .  S
O488        C490   1.269       .  A
O489       Ni500   1.939   1_455  S
C490        O496   1.272   1_455  A
C490        C714   1.477       .  S
C491        C766   1.459       .  S
O493       Ni501   1.937   1_465  S
O493       Ni495   1.915   1_565  S
O493       Ni500   1.922   1_455  S
O494       Ni495   1.927       .  S
Ni495       O499   1.913       .  S
Ni495       O497   1.940   1_545  S
C498        O499   1.266       .  A
C498        C709   1.432       .  S
O503       Ni509   1.919       .  S
O503        C524   1.269       .  A
O504       Ni527   1.905       .  S
O504        C513   1.267   1_545  A
O505       Ni509   1.918       .  S
O505       Ni527   1.906   1_455  S
O505       Ni521   1.911       .  S
O505        H528   0.966       .  S
C506        O523   1.264       .  A
C506        O515   1.266       .  A
C506        C707   1.433       .  S
O507       Ni526   1.912   1_655  S
O507        C513   1.268       .  A
O508       Ni526   1.903       .  S
O508        C510   1.271   1_565  A
Ni509       O512   1.931   1_455  S
Ni509       O514   1.907       .  S
C510        O520   1.279       .  A
C510        C713   1.478       .  S
O511       Ni527   1.911       .  S
O511        C517   1.267       .  A
O512        C517   1.269       .  A
C513        C728   1.426       .  S
O514        C516   1.271       .  A
O515       Ni526   1.928       .  S
C516        O522   1.278   1_455  A
C516        C717   1.480       .  S
C517        C749   1.435       .  S
H518        O519   0.966       .  S
O519       Ni527   1.919   1_465  S
O519       Ni521   1.907   1_565  S
O519       Ni526   1.920       .  S
O520       Ni521   1.953       .  S
Ni521       O525   1.899       .  S
Ni521       O523   1.908   1_545  S
O522       Ni527   1.950       .  S
C524        O525   1.265       .  A
C524        C706   1.425       .  S
C529        C695   1.479       .  S
C530        C534   1.545       .  S
C530        C536   1.555       .  S
C530        C535   1.543       .  S
C530        C702   1.489       .  S
C531        C539   1.388       .  A
C531        C534   1.394       .  A
C532        C535   1.392       .  A
C533        C536   1.400       .  A
C534        C537   1.388       .  A
C535        C541   1.387       .  A
C536        C544   1.392       .  A
C537        H550   1.082       .  S
C537        N538   1.361       .  A
N538        C539   1.361       .  A
N538        C712   1.421       .  S
C541        H551   1.082       .  S
C541        N542   1.362       .  A
N542        C756   1.414       .  S
C543        H549   1.082       .  S
C544        H546   1.082       .  S
C544        N545   1.366       .  A
N545        C703   1.430       .  S
C547        H548   1.082       .  S
C552        C554   1.542       .  S
C552        C556   1.533       .  S
C552        C555   1.541       .  S
C552        C699   1.489       .  S
C553        C557   1.529       .  S
C553        C559   1.526       .  S
C553        C558   1.533       .  S
C553        C698   1.481       .  S
C554        C562   1.380       .  A
C554        C557   1.400       .  A
C555        C566   1.380       .  A
C555        C558   1.398       .  A
C556        C570   1.375       .  A
C556        C559   1.394       .  A
C557        C560   1.372       .  A
C558        C564   1.376       .  A
C559        C567   1.372       .  A
C560        H573   1.083       .  S
C560        N561   1.354       .  A
N561        C562   1.360       .  A
N561        C708   1.402       .  S
C562        H563   1.082       .  S
C564        H574   1.083       .  S
C564        N565   1.356       .  A
N565        C566   1.359       .  A
N565        C745   1.406       .  S
C566        H572   1.082       .  S
C567        H569   1.083       .  S
C567        N568   1.354       .  A
N568        C570   1.355       .  A
N568        C693   1.397       .  S
C570        H571   1.083       .  S
C575        C577   1.531       .  S
C575        C579   1.539       .  S
C575        C578   1.527       .  S
C575        C690   1.478       .  S
C576        C580   1.537       .  S
C576        C582   1.527       .  S
C576        C581   1.531       .  S
C576        C683   1.481       .  S
C577        C585   1.380       .  A
C578        C589   1.370       .  A
C579        C593   1.383       .  A
C580        C583   1.378       .  A
C581        C587   1.375       .  A
C582        C590   1.374       .  A
C583        H596   1.083       .  S
N584        C585   1.356       .  A
N584        C692   1.401       .  S
C585        H586   1.082       .  S
C587        H597   1.083       .  S
N588        C589   1.353       .  A
N588        C732   1.397       .  S
C589        H595   1.083       .  S
C590        H592   1.083       .  S
N591        C593   1.350       .  A
N591        C710   1.401       .  S
C593        H594   1.083       .  S
C598        C600   1.529       .  S
C598        C602   1.536       .  S
C598        C601   1.526       .  S
C598        C686   1.481       .  S
C599        C603   1.523       .  S
C599        C605   1.534       .  S
C599        C604   1.531       .  S
C599        C687   1.479       .  S
C600        C608   1.375       .  A
C600        C603   1.391       .  A
C601        C612   1.369       .  A
C601        C604   1.395       .  A
C602        C616   1.382       .  A
C602        C605   1.419       .  A
C603        C606   1.373       .  A
C604        C610   1.374       .  A
C605        C613   1.377       .  A
C606        H619   1.083       .  S
C606        N607   1.353       .  A
N607        C608   1.356       .  A
N607        C681   1.396       .  S
C608        H609   1.083       .  S
C610        H620   1.083       .  S
C610        N611   1.356       .  A
N611        C612   1.353       .  A
N611        C724   1.393       .  S
C612        H618   1.083       .  S
C613        H615   1.083       .  S
C613        N614   1.346       .  A
N614        C616   1.348       .  A
N614        C705   1.396       .  S
C616        H617   1.083       .  S
O621       Ni627   1.903       .  S
O621        C642   1.267       .  A
O622       Ni645   1.894       .  S
O622        C631   1.262       .  A
O623       Ni627   1.897       .  S
O623       Ni639   1.930       .  S
O623        H646   0.966       .  S
C624        O633   1.279       .  A
C624        C742   1.440       .  S
O625       Ni644   1.904       .  S
O625        C631   1.268       .  A
O626       Ni644   1.919       .  S
O626        C628   1.267       .  A
Ni627       O630   1.920       .  S
Ni627       O632   1.917       .  S
C628        C704   1.475       .  S
O629       Ni645   1.926       .  S
O629        C635   1.279       .  A
C631        C677   1.456       .  S
O633       Ni644   1.923       .  S
C634        O640   1.274       .  A
C634        C767   1.459       .  S
C635        C691   1.434       .  S
H636        O637   0.966       .  S
O637       Ni645   1.930       .  S
O637       Ni644   1.894       .  S
O638       Ni639   1.959   1_554  S
Ni639       O643   1.897       .  S
Ni639       O641   1.924       .  S
O640       Ni645   1.952       .  S
C642        O643   1.263       .  A
C642        C674   1.456       .  S
O647       Ni653   1.917       .  S
O647        C668   1.268       .  A
O648       Ni671   1.904       .  S
O648        C657   1.266       .  A
O649       Ni653   1.912       .  S
O649       Ni671   1.908       .  S
O649       Ni665   1.925       .  S
O649        H672   0.969       .  S
C650        O667   1.265       .  A
C650        O659   1.269       .  A
C650        C682   1.426       .  S
O651       Ni670   1.915       .  S
O651        C657   1.268       .  A
O652       Ni670   1.894       .  S
O652        C654   1.270       .  A
Ni653       O656   1.929       .  S
Ni653       O658   1.897       .  S
C654        O664   1.271       .  A
C654        C673   1.451       .  S
O655       Ni671   1.906       .  S
O655        C661   1.266       .  A
O656        C661   1.268       .  A
C657        C694   1.427       .  S
O658        C660   1.272       .  A
O659       Ni670   1.929       .  S
C660        O666   1.272       .  A
C660        C678   1.452       .  S
C661        C726   1.427       .  S
H662        O663   0.967       .  S
O663       Ni671   1.922       .  S
O663       Ni665   1.907       .  S
O663       Ni670   1.912       .  S
O664       Ni665   1.928       .  S
Ni665       O669   1.902       .  S
Ni665       O667   1.904       .  S
O666       Ni671   1.929       .  S
C668        O669   1.265       .  A
C668        C752   1.429       .  S
C673        C674   1.337       .  D
C673        H675   1.087       .  S
C674        H676   1.087       .  S
C677        C678   1.336       .  D
C677        H679   1.087       .  S
C678        H680   1.087       .  S
C681        C682   1.201       .  T
C683        C684   1.212       .  T
C684        C685   1.423       .  S
C685        C686   1.212       .  T
C687        C688   1.211       .  T
C688        C689   1.420       .  S
C689        C690   1.211       .  T
C691        C692   1.205       .  T
C693        C694   1.202       .  T
C695        C696   1.212       .  T
C696        C697   1.423       .  S
C697        C698   1.212       .  T
C699        C700   1.218       .  T
C700        C701   1.432       .  S
C701        C702   1.218       .  T
C703        C704   1.230       .  T
C705        C706   1.201       .  T
C707        C708   1.206       .  T
C709        C710   1.205       .  T
C711        C712   1.222       .  T
C713        C714   1.347       .  D
C713        H715   1.087       .  S
C714        H716   1.087   1_455  S
C717        C718   1.347       .  D
C717        H719   1.087   1_445  S
C718        H720   1.087       .  S
C721        C722   1.199       .  T
C722        C723   1.400   1_565  S
C723        C724   1.198       .  T
C725        C726   1.202       .  T
C727        C728   1.201       .  T
C729        C730   1.202       .  T
C730        C731   1.406   1_565  S
C731        C732   1.202       .  T
C733        C734   1.213       .  T
C734        C735   1.423       .  S
C735        C736   1.213       .  T
C737        C738   1.214       .  T
C738        C739   1.424       .  S
C739        C740   1.214       .  T
C741        C742   1.209       .  T
C743        C744   1.206       .  T
C745        C746   1.209       .  T
C746        C747   1.417       .  S
C747        C748   1.209   1_455  T
C749        C750   1.206       .  T
C751        C752   1.202       .  T
C753        C754   1.217   1_655  T
C754        C755   1.430       .  S
C755        C756   1.217       .  T
C757        C758   1.213       .  T
C758        C759   1.424       .  S
C759        C760   1.214       .  T
C761        C762   1.211       .  T
C762        C763   1.421       .  S
C763        C764   1.211       .  T
C765        C766   1.220       .  T
C767        C768   1.220       .  T
