geometry optimzed in LAMMPS
_audit_creation_date              2020-11-30 
_audit_creation_method            'lammps2cif' 
_symmetry_space_group_name_H-M    'P1' 
_symmetry_Int_Tables_number       1 
_symmetry_cell_setting            triclinic 
loop_ 
_symmetry_equiv_pos_as_xyz 
  x,y,z 
_cell_length_a                    35.37323261520207 
_cell_length_b                    35.44419266082551 
_cell_length_c                    25.88383427054439 
_cell_angle_alpha                 89.86435263035493 
_cell_angle_beta                  89.98603271195523 
_cell_angle_gamma                 120.03668295291733 
loop_ 
_atom_site_label 
_atom_site_type_symbol 
_atom_site_fract_x 
_atom_site_fract_y 
_atom_site_fract_z 
_atom_site_charge 
C1          C  0.76508539  0.49188094  0.50552144     0.00330
C2          C  0.72585120  0.48991077  0.00414902     0.00330
C3          C  0.47920513  0.20742148  0.00030160     0.00330
C4          C  0.48474621  0.24828866  0.00187651     0.00330
C5          C  0.72573458  0.20886781  0.00685977     0.00330
C6          C  0.76202815  0.24896177  0.50437642     0.00330
C7          C  0.49979771  0.75614372  0.00188415     0.00330
C8          C  0.49987356  0.71786518  0.00328390     0.00330
C9          C  0.21303763  0.46547170  0.49638157     0.00330
C10         C  0.25328578  0.46935602  0.99898481     0.00330
C11         C  0.21565333  0.71945894  0.50390688     0.00330
C12         C  0.25464058  0.75711782  0.00369284     0.00330
O13         O  0.91683714  0.37028216  0.35552418    -0.75530
O14         O  0.86540275  0.37805060  0.31114359    -0.54430
C15         C  0.87689906  0.35900353  0.34492991     0.78200
O16         O  0.06443107  0.59029260  0.35884882    -0.60130
O17         O  0.11610913  0.58364656  0.31347942    -0.53160
C18         C  0.10429250  0.60182165  0.34821356     0.70220
O19         O  0.91778530  0.51789782  0.36047549    -0.74690
O20         O  0.86620634  0.45992782  0.31452463    -0.55250
C21         C  0.87799212  0.48957713  0.34917631     0.76220
O22         O  0.06433907  0.43676066  0.34657954    -0.59830
O23         O  0.11498647  0.49663274  0.30277580    -0.52950
C24         C  0.10414517  0.46489914  0.33458641     0.72810
Zr25       Zr  0.99085305  0.42353117  0.32695866     2.54710
O26         O  0.99531950  0.42609218  0.42087976    -0.80400
O27         O  0.98832802  0.35371113  0.32208194    -0.93810
Zr28       Zr  0.99121424  0.53535689  0.33386212     2.64680
O29         O  0.99074473  0.52858263  0.42757012    -0.98770
O30         O  0.99241426  0.60456718  0.33809279    -0.80830
O31         O  0.94850332  0.45837742  0.33194704    -0.84190
O32         O  0.03392460  0.50060264  0.33070814    -2.18900
O33         O  0.06098244  0.44849431  0.14621028    -0.67580
O34         O  0.11556687  0.50484465  0.18971921    -0.52140
C35         C  0.10147351  0.47503593  0.15459258     0.71190
O36         O  0.91764163  0.52218315  0.15532908    -0.60480
O37         O  0.86577453  0.46291204  0.19887539    -0.52460
C38         C  0.87760526  0.49360952  0.16525808     0.73000
O39         O  0.06465744  0.59689829  0.15511326    -0.71880
O40         O  0.11587844  0.58661456  0.19649177    -0.50560
C41         C  0.10436412  0.60674391  0.16427486     0.74380
O42         O  0.91563769  0.37508380  0.14886074    -0.67210
O43         O  0.86432752  0.38055670  0.19618178    -0.54410
C44         C  0.87592567  0.36293572  0.16080700     0.72760
Zr45       Zr  0.98869681  0.42916662  0.17467941     2.77540
O46         O  0.98519971  0.43372732  0.08100359    -0.97960
O47         O  0.98840366  0.36044156  0.17052403    -0.78780
Zr48       Zr  0.99114625  0.54175253  0.18208505     2.70070
O49         O  0.99179234  0.54661927  0.08821997    -0.80030
O50         O  0.99035097  0.60952564  0.19315258    -0.99110
Zr51       Zr  0.90615375  0.44060376  0.25492396     2.21500
Zr52       Zr  0.07567026  0.52384434  0.25253018     2.11130
O53         O  0.03228869  0.50600883  0.17624601    -2.47800
O54         O  0.94743760  0.46472479  0.17722933    -0.79820
O55         O  0.03248961  0.44632817  0.24967693    -0.72010
O56         O  0.94828167  0.51829154  0.25822377    -2.32970
O57         O  0.94716837  0.40401972  0.25142829    -2.29180
O58         O  0.03439992  0.56033273  0.25769257    -0.73770
H59         H  0.05292838  0.50874251  0.36040643     0.78220
H60         H  0.92969017  0.53099459  0.25962396     0.79310
H61         H  0.05031282  0.51599217  0.14561986     0.81540
H62         H  0.92821579  0.37278842  0.25022703     0.79140
H63         H  0.97257488  0.60302010  0.31016169     0.42180
H64         H  0.01523327  0.62719849  0.21643500     0.41150
H65         H  0.97939148  0.51614183  0.07638411     0.40830
H66         H  0.01425450  0.45782588  0.07046775     0.38760
H67         H  0.00320658  0.35969447  0.20264520     0.41890
H68         H  0.96399263  0.33593383  0.29818684     0.36680
H69         H  0.97493187  0.43607835  0.43174954     0.42790
H70         H  0.01721687  0.52692249  0.43573704     0.39210
H71         H  0.98432285  0.40704518  0.06803792     0.44130
H72         H  0.97766218  0.34020372  0.35646015     0.42850
H73         H  0.99726102  0.55748197  0.44054918     0.42990
H74         H  0.99966933  0.62431194  0.15919605     0.43340
O75         O  0.45626677  0.37480632  0.14762477    -0.75530
O76         O  0.51180723  0.37780109  0.19518953    -0.54430
C77         C  0.48285272  0.36125618  0.15925040     0.78200
O78         O  0.53305328  0.59421850  0.14966354    -0.60130
O79         O  0.47524225  0.58955735  0.19384534    -0.53160
C80         C  0.50609567  0.60745426  0.16008962     0.70220
O81         O  0.60285040  0.51774720  0.15015561    -0.74690
O82         O  0.59319510  0.45816753  0.19550338    -0.55250
C83         C  0.61264528  0.48829604  0.16148856     0.76220
O84         O  0.38011431  0.44568864  0.14787181    -0.59830
O85         O  0.39024766  0.50675399  0.18965333    -0.52950
C86         C  0.37031646  0.47550643  0.15692440     0.72810
Zr87       Zr  0.43532983  0.42747548  0.17485634     2.54710
O88         O  0.43522043  0.42795298  0.08079855    -0.80400
O89         O  0.36635995  0.35896258  0.17928127    -0.93810
Zr90       Zr  0.54895317  0.53784921  0.17549442     2.64680
O91         O  0.54807417  0.53558766  0.08141339    -0.98770
O92         O  0.61872730  0.60561545  0.17701125    -0.80830
O93         O  0.51254888  0.46078551  0.17468256    -0.84190
O94         O  0.47174323  0.50460702  0.17309424    -2.18900
O95         O  0.38026156  0.44646165  0.35041184    -0.67580
O96         O  0.38711173  0.50462279  0.30504844    -0.52140
C97         C  0.36848655  0.47446358  0.33939220     0.71190
O98         O  0.60017872  0.51771602  0.35595607    -0.60480
O99         O  0.59339770  0.45941230  0.31127779    -0.52460
C100        C  0.61165909  0.48924874  0.34587136     0.73000
O101        O  0.53082241  0.59515222  0.35361289    -0.71880
O102        O  0.47082731  0.58640352  0.30978506    -0.50560
C103        C  0.50139244  0.60537758  0.34358716     0.74380
O104        O  0.45239261  0.37260403  0.35639176    -0.67210
O105        O  0.51088104  0.37902918  0.31159331    -0.54410
C106        C  0.48083432  0.36119032  0.34611364     0.72760
Zr107      Zr  0.43473570  0.42730510  0.32691772     2.77540
O108        O  0.43409860  0.42811126  0.42103544    -0.97960
O109        O  0.36589809  0.35873034  0.32287846    -0.78780
Zr110      Zr  0.54763961  0.53882055  0.32757281     2.70070
O111        O  0.54612818  0.53912667  0.42160368    -0.80030
O112        O  0.61769918  0.60608768  0.32261868    -0.99110
Zr113      Zr  0.53243658  0.43941920  0.25268293     2.21500
Zr114      Zr  0.45042980  0.52631751  0.24984284     2.11130
O115        O  0.47042213  0.50453113  0.32773835    -2.47800
O116        O  0.51183386  0.46150416  0.32937898    -0.79820
O117        O  0.41329780  0.44862370  0.25052191    -0.72010
O118        O  0.57000774  0.51720441  0.25239748    -2.32970
O119        O  0.45465780  0.40416765  0.25132911    -2.29180
O120        O  0.52824667  0.56128509  0.25064158    -0.73770
H121        H  0.46307232  0.51418866  0.14266448     0.78220
H122        H  0.60126586  0.52917875  0.25282654     0.79310
H123        H  0.46102857  0.51391107  0.35766769     0.81540
H124        H  0.44170342  0.37284663  0.25155627     0.79140
H125        H  0.63405102  0.60305809  0.20764715     0.42180
H126        H  0.61201583  0.62583204  0.30106206     0.41150
H127        H  0.52849922  0.50799452  0.43139200     0.40830
H128        H  0.43806154  0.45695674  0.43031012     0.38760
H129        H  0.35016414  0.36239676  0.29341767     0.41890
H130        H  0.37337876  0.33837881  0.19681855     0.36680
H131        H  0.46650330  0.44409867  0.07108755     0.42790
H132        H  0.52039682  0.53420473  0.07140357     0.39210
H133        H  0.40349505  0.40709571  0.43065825     0.44130
H134        H  0.36018194  0.34869665  0.14307924     0.42850
H135        H  0.57114463  0.56508948  0.07070210     0.42990
H136        H  0.62238360  0.61850740  0.35782315     0.43340
O137        O  0.60427961  0.06055725  0.15675876    -0.75530
O138        O  0.59446067  0.10995888  0.20247251    -0.54430
C139        C  0.61425554  0.09985341  0.16828234     0.78200
O140        O  0.38153181  0.90824493  0.15041622    -0.60130
O141        O  0.38797312  0.85668079  0.19567246    -0.53160
C142        C  0.36930342  0.86835353  0.16157930     0.70220
O143        O  0.45842422  0.05419819  0.14178130    -0.74690
O144        O  0.51244515  0.10612225  0.19207813    -0.55250
C145        C  0.48577403  0.09388834  0.15378516     0.76220
O146        O  0.53717331  0.91415654  0.15270934    -0.59830
O147        O  0.47554286  0.86161324  0.19274371    -0.52950
C148        C  0.50750739  0.87421592  0.16048425     0.72810
Zr149      Zr  0.55117935  0.98566645  0.18118348     2.54710
O150        O  0.55295097  0.98731306  0.08713683    -0.80400
O151        O  0.62106817  0.98827687  0.18860392    -0.93810
Zr152      Zr  0.43729852  0.98166159  0.17342718     2.64680
O153        O  0.44169546  0.97905796  0.07964015    -0.98770
O154        O  0.36976261  0.98401519  0.16895464    -0.80830
O155        O  0.51424055  0.02588900  0.17727395    -0.84190
O156        O  0.47403367  0.94123049  0.17537552    -2.18900
O157        O  0.52674897  0.91039308  0.35736955    -0.67580
O158        O  0.47217160  0.85767963  0.30930659    -0.52140
C159        C  0.50120668  0.87036165  0.34515564     0.71190
O160        O  0.44564021  0.05165699  0.35215820    -0.60480
O161        O  0.50370402  0.10470568  0.30838500    -0.52460
C162        C  0.47281364  0.09200288  0.34181788     0.73000
O163        O  0.37623907  0.90486406  0.35099370    -0.71880
O164        O  0.38899959  0.85533190  0.30981323    -0.50560
C165        C  0.36785635  0.86568663  0.34194595     0.74380
O166        O  0.59474000  0.05665771  0.36315787    -0.67210
O167        O  0.58708507  0.10787934  0.31820066    -0.54410
C168        C  0.60484954  0.09626196  0.35351605     0.72760
Zr169      Zr  0.54384023  0.98346030  0.33314062     2.77540
O170        O  0.53935002  0.98155943  0.42713178    -0.97960
O171        O  0.61444289  0.98720077  0.33426182    -0.78780
Zr172      Zr  0.42978698  0.97922239  0.32546185     2.70070
O173        O  0.42611465  0.97799063  0.41942465    -0.80030
O174        O  0.36009647  0.97677309  0.31650358    -0.99110
Zr175      Zr  0.53023082  0.06664467  0.25513206     2.21500
Zr176      Zr  0.45044946  0.89791126  0.25207740     2.11130
O177        O  0.46695716  0.93920487  0.32986984    -2.47800
O178        O  0.50672932  0.02355624  0.33164952    -0.79820
O179        O  0.52808236  0.94163308  0.25663575    -0.72010
O180        O  0.45261423  0.02318944  0.24999512    -2.32970
O181        O  0.56872120  0.02734023  0.25805742    -2.29180
O182        O  0.41240052  0.93761131  0.24868014    -0.73770
H183        H  0.46623489  0.92309212  0.14499809     0.78220
H184        H  0.43928321  0.04120413  0.24835621     0.79310
H185        H  0.45714696  0.92037167  0.35982223     0.81540
H186        H  0.59986298  0.04692661  0.26017534     0.79140
H187        H  0.36575245  0.99231901  0.20414725     0.42180
H188        H  0.34250984  0.95135231  0.29398049     0.41150
H189        H  0.45691477  0.99140708  0.43070042     0.40830
H190        H  0.51148853  0.95479305  0.43541736     0.38760
H191        H  0.61307268  0.96838937  0.30526302     0.41890
H192        H  0.63961883  0.01476938  0.20912614     0.36680
H193        H  0.53720187  0.00279681  0.07739543     0.42790
H194        H  0.44166911  0.95165865  0.07221974     0.39210
H195        H  0.56225262  0.97511819  0.43852189     0.44130
H196        H  0.63359840  0.99558268  0.15333574     0.42850
H197        H  0.41294945  0.97369912  0.06722266     0.42990
H198        H  0.34626010  0.96759776  0.35097620     0.43340
C199        C  0.34399101  0.80336497  0.40181664    -0.26550
C200        C  0.33329314  0.83073950  0.37393521    -0.14620
C201        C  0.29291683  0.82874345  0.38396361     0.36010
C202        C  0.26616359  0.80213621  0.42414881    -0.26000
C203        C  0.27874367  0.77765080  0.45485085    -0.15240
C204        C  0.31732377  0.77713184  0.44248464     0.37090
N205        N  0.33041499  0.75167401  0.47295420    -0.89490
H206        H  0.37484651  0.80480649  0.39432914     0.18200
H207        H  0.23629586  0.80219781  0.43287833     0.18200
N208        N  0.27804656  0.85320206  0.35442676    -0.88520
H209        H  0.35932997  0.75462544  0.45836243     0.35570
H210        H  0.30663951  0.71892460  0.46880284     0.40670
H211        H  0.29788198  0.86818186  0.32233541     0.40290
H212        H  0.27950858  0.87767732  0.37825030     0.35180
C213        C  0.30798743  0.84818618  0.10038244    -0.26550
C214        C  0.33231537  0.83468579  0.13046190    -0.14620
C215        C  0.32334026  0.79112999  0.12557279     0.36010
C216        C  0.29568883  0.76498088  0.08562415    -0.26000
C217        C  0.27553447  0.78071654  0.05218839    -0.15240
C218        C  0.27946253  0.82152473  0.06179214     0.37090
N219        N  0.25562736  0.83635966  0.03095761    -0.89490
H220        H  0.31242305  0.88048541  0.10548236     0.18200
H221        H  0.29169278  0.73312089  0.07903875     0.18200
N222        N  0.34240808  0.77355952  0.16022138    -0.88520
H223        H  0.26241549  0.86735495  0.04260779     0.35570
H224        H  0.22237129  0.81528925  0.03782419     0.40670
H225        H  0.37577348  0.78911360  0.15264368     0.40290
H226        H  0.33037147  0.74049909  0.15274011     0.35180
C227        C  0.12755878  0.66772215  0.40265479    -0.26550
C228        C  0.13797178  0.63793299  0.38012607    -0.14620
C229        C  0.17779542  0.64032359  0.39363974     0.36010
C230        C  0.20565975  0.67150963  0.42942009    -0.26000
C231        C  0.19294395  0.69785491  0.45538741    -0.15240
C232        C  0.15414916  0.69696183  0.44096313     0.37090
N233        N  0.14077859  0.72406324  0.46721809    -0.89490
H234        H  0.09729896  0.66658042  0.39244681     0.18200
H235        H  0.23538358  0.67217680  0.44082111     0.18200
N236        N  0.18778250  0.60826370  0.37549156    -0.88520
H237        H  0.11092344  0.71882310  0.45281130     0.35570
H238        H  0.16376933  0.75650263  0.45910936     0.40670
H239        H  0.16526325  0.57881560  0.39301058     0.40290
H240        H  0.21861422  0.61507368  0.38826161     0.35180
C241        C  0.16737965  0.63097784  0.10619388    -0.26550
C242        C  0.13889484  0.64129921  0.13197521    -0.14620
C243        C  0.14027390  0.68108296  0.12020824     0.36010
C244        C  0.16813804  0.70795493  0.08080796    -0.26000
C245        C  0.19413571  0.69579662  0.05249315    -0.15240
C246        C  0.19443181  0.65736617  0.06608470     0.37090
N247        N  0.22003132  0.64371724  0.03691803    -0.89490
H248        H  0.16623678  0.60047388  0.11485079     0.18200
H249        H  0.16806498  0.73760054  0.07074700     0.18200
N250        N  0.11416992  0.69532017  0.14725983    -0.88520
H251        H  0.21483995  0.61368921  0.05031608     0.35570
H252        H  0.25296569  0.66619289  0.04300467     0.40670
H253        H  0.09811027  0.67539917  0.17892471     0.40290
H254        H  0.09041495  0.69341106  0.12166494     0.35180
C255        C  0.29842212  0.50533894  0.42055281    -0.26550
C256        C  0.27572018  0.46766358  0.45106321    -0.14620
C257        C  0.27810679  0.43022126  0.43824479     0.36010
C258        C  0.30625126  0.43277041  0.39890856    -0.26000
C259        C  0.33214001  0.47165140  0.37120436    -0.15240
C260        C  0.32588258  0.50756076  0.38031565     0.37090
N261        N  0.34752899  0.54701923  0.35074256    -0.89490
H262        H  0.29659930  0.53415939  0.42959415     0.18200
H263        H  0.30881857  0.40408708  0.39119798     0.18200
N264        N  0.25302896  0.38921349  0.46445776    -0.88520
H265        H  0.33892367  0.53949504  0.31194108     0.35570
H266        H  0.38120597  0.56063639  0.35451054     0.40670
H267        H  0.22998159  0.38940182  0.98930504     0.40290
H268        H  0.27456173  0.38386140  0.98670966     0.35180
C269        C  0.34592119  0.51267754  0.09561731    -0.26550
C270        C  0.33557263  0.47527488  0.12452202    -0.14620
C271        C  0.29414421  0.43753454  0.11785667     0.36010
C272        C  0.26487831  0.43769566  0.08076350    -0.26000
C273        C  0.27721224  0.47393401  0.04846126    -0.15240
C274        C  0.31745141  0.51200784  0.05745755     0.37090
N275        N  0.33054407  0.54950677  0.02564621    -0.89490
H276        H  0.37751382  0.54183340  0.10033123     0.18200
H277        H  0.23364507  0.40850776  0.07479526     0.18200
N278        N  0.28204383  0.39916692  0.14832324    -0.88520
H279        H  0.35761833  0.55402495  0.00464130     0.35570
H280        H  0.33981858  0.57654593  0.04944081     0.40670
H281        H  0.30137354  0.38615189  0.13642234     0.40290
H282        H  0.24976732  0.37527373  0.14063326     0.35180
C283        C  0.13061978  0.42285295  0.38693750    -0.26550
C284        C  0.13953364  0.46213341  0.36286459    -0.14620
C285        C  0.18077379  0.49936643  0.37218630     0.36010
C286        C  0.20334021  0.50058488  0.41742066    -0.26000
C287        C  0.19183373  0.46225457  0.44513403    -0.15240
C288        C  0.15947927  0.42220519  0.42405029     0.37090
N289        N  0.15926377  0.38224194  0.43500439    -0.89490
H290        H  0.10205240  0.39262341  0.37555221     0.18200
H291        H  0.23078631  0.53116299  0.42993017     0.18200
N292        N  0.20200889  0.53278451  0.33355786    -0.88520
H293        H  0.13369404  0.35619815  0.41544142     0.35570
H294        H  0.15467810  0.37465198  0.47409440     0.40670
H295        H  0.18462527  0.54875900  0.32729373     0.40290
H296        H  0.23317515  0.55630916  0.34589468     0.35180
C297        C  0.17561812  0.50553826  0.11279733    -0.26550
C298        C  0.13262686  0.47068409  0.11943425    -0.14620
C299        C  0.11898480  0.43271143  0.08877776     0.36010
C300        C  0.14680910  0.43161919  0.05183593    -0.26000
C301        C  0.18867200  0.46678219  0.04313064    -0.15240
C302        C  0.20352398  0.50393829  0.07480871     0.37090
N303        N  0.24610952  0.54078869  0.06718877    -0.89490
H304        H  0.18708781  0.53489632  0.13552228     0.18200
H305        H  0.13401131  0.40286281  0.02863795     0.18200
N306        N  0.07688216  0.39422415  0.09318431    -0.88520
H307        H  0.26297000  0.54732614  0.10219841     0.35570
H308        H  0.24277540  0.56763192  0.05791878     0.40670
H309        H  0.05275611  0.40049134  0.07960972     0.40290
H310        H  0.07128136  0.38381241  0.13165684     0.35180
C311        C  0.46457917  0.62335519  0.41096392    -0.26550
C312        C  0.50006541  0.63835687  0.37723587    -0.14620
C313        C  0.53469239  0.68208162  0.38154282     0.36010
C314        C  0.53304756  0.70900560  0.42058836    -0.26000
C315        C  0.49779055  0.69306832  0.45543884    -0.15240
C316        C  0.46321149  0.65012749  0.44952638     0.37090
N317        N  0.42721206  0.63277138  0.48445669    -0.89490
H318        H  0.43881163  0.58960566  0.40956551     0.18200
H319        H  0.56028193  0.74181461  0.42516218     0.18200
N320        N  0.57178743  0.70008862  0.34747407    -0.88520
H321        H  0.42682612  0.60672098  0.00394006     0.35570
H322        H  0.39859622  0.62141699  0.96287328     0.40670
H323        H  0.56863824  0.67780504  0.31911798     0.40290
H324        H  0.59921007  0.70684194  0.36953764     0.35180
C325        C  0.47430302  0.65202764  0.12749307    -0.26550
C326        C  0.50952693  0.64416862  0.12845451    -0.14620
C327        C  0.54537667  0.66841371  0.09478380     0.36010
C328        C  0.54233086  0.69495602  0.05681103    -0.26000
C329        C  0.50514094  0.69907738  0.05242158    -0.15240
C330        C  0.47180802  0.67948643  0.09002772     0.37090
N331        N  0.43515182  0.68645948  0.08963197    -0.89490
H332        H  0.44734410  0.63485885  0.15416821     0.18200
H333        H  0.56843450  0.71114885  0.02878676     0.18200
N334        N  0.58417054  0.66501675  0.09790927    -0.88520
H335        H  0.41395850  0.67001207  0.12032601     0.35570
H336        H  0.41735655  0.67340853  0.05584232     0.40670
H337        H  0.59878815  0.67779321  0.13359063     0.40290
H338        H  0.60681563  0.68423488  0.06960359     0.35180
C339        C  0.46765033  0.79499848  0.38183717    -0.26550
C340        C  0.50438410  0.83704322  0.37687636    -0.14620
C341        C  0.54241394  0.84727335  0.40588966     0.36010
C342        C  0.54075930  0.81823353  0.44326956    -0.26000
C343        C  0.50245238  0.77874053  0.45252648    -0.15240
C344        C  0.46654174  0.76531956  0.41898207     0.37090
N345        N  0.42957294  0.72191770  0.42215522    -0.89490
H346        H  0.43901361  0.78587116  0.35835019     0.18200
H347        H  0.56924652  0.82762261  0.46717489     0.18200
N348        N  0.58323310  0.88683827  0.39893505    -0.88520
H349        H  0.40638150  0.71733417  0.39413101     0.35570
H350        H  0.41438554  0.71779875  0.45784036     0.40670
H351        H  0.58082175  0.91318401  0.41279367     0.40290
H352        H  0.59119354  0.89099391  0.35963769     0.35180
C353        C  0.46716200  0.81156097  0.10312638    -0.26550
C354        C  0.50707915  0.84062041  0.12595035    -0.14620
C355        C  0.54491433  0.83926091  0.11107864     0.36010
C356        C  0.54132399  0.80841942  0.07383582    -0.26000
C357        C  0.50121554  0.78061950  0.04960265    -0.15240
C358        C  0.46399591  0.78249756  0.06484008     0.37090
N359        N  0.42292735  0.75629263  0.03991292    -0.89490
H360        H  0.43851164  0.81365414  0.11225098     0.18200
H361        H  0.57026414  0.80780786  0.06142375     0.18200
N362        N  0.58662586  0.86911319  0.13322948    -0.88520
H363        H  0.41370486  0.77731365  0.02316176     0.35570
H364        H  0.39970823  0.73796224  0.06813613     0.40670
H365        H  0.59592512  0.90024038  0.11920205     0.40290
H366        H  0.61040846  0.86208610  0.12021048     0.35180
C367        C  0.82104793  0.26871420  0.06790668    -0.26550
C368        C  0.78523252  0.27247480  0.05199244    -0.14620
C369        C  0.77570871  0.30192659  0.07802878     0.36010
C370        C  0.80389018  0.32859192  0.11690932    -0.26000
C371        C  0.84184504  0.32744301  0.12945229    -0.15240
C372        C  0.84939396  0.29570235  0.10641594     0.37090
N373        N  0.88653608  0.29185227  0.12113620    -0.89490
H374        H  0.82808427  0.24583980  0.04873180     0.18200
H375        H  0.79756010  0.35247046  0.13487124     0.18200
N376        N  0.73886803  0.30683592  0.06532993    -0.88520
H377        H  0.88763270  0.26730771  0.10000786     0.35570
H378        H  0.88240294  0.28215169  0.15987695     0.40670
H379        H  0.72048090  0.28606561  0.03559926     0.40290
H380        H  0.75081366  0.33860512  0.05170871     0.35180
C381        C  0.80459494  0.32549452  0.38910815    -0.26550
C382        C  0.84191027  0.32306093  0.37601191    -0.14620
C383        C  0.84704396  0.28919158  0.39808116     0.36010
C384        C  0.81936301  0.26414070  0.43852326    -0.26000
C385        C  0.78436620  0.26926865  0.45465161    -0.15240
C386        C  0.77567643  0.29860768  0.42775086     0.37090
N387        N  0.73842519  0.30236605  0.44072485    -0.89490
H388        H  0.79896060  0.34992880  0.37130273     0.18200
H389        H  0.82588207  0.24098676  0.45808530     0.18200
N390        N  0.87990108  0.27947390  0.38081621    -0.88520
H391        H  0.74943263  0.33459253  0.45136038     0.35570
H392        H  0.71932624  0.29585829  0.90754357     0.40670
H393        H  0.89239691  0.29406907  0.34507384     0.40290
H394        H  0.86425033  0.24608943  0.37289581     0.35180
C395        C  0.66717615  0.19283455  0.44329244    -0.26550
C396        C  0.70088693  0.18576910  0.45982612    -0.14620
C397        C  0.70540752  0.15209615  0.43715829     0.36010
C398        C  0.67456111  0.12458392  0.40083077    -0.26000
C399        C  0.63945430  0.13011480  0.38622465    -0.15240
C400        C  0.63622342  0.16523381  0.40685255     0.37090
N401        N  0.60020647  0.17119547  0.39329747    -0.89490
H402        H  0.66349980  0.21840863  0.46122140     0.18200
H403        H  0.67737262  0.09793214  0.38457997     0.18200
N404        N  0.74038163  0.14495281  0.45208587    -0.88520
H405        H  0.60282808  0.19865201  0.41167401     0.35570
H406        H  0.57170331  0.14435376  0.40743565     0.40670
H407        H  0.76938952  0.17145673  0.43877680     0.40290
H408        H  0.73763970  0.11743985  0.43374667     0.35180
C409        C  0.67333588  0.19613713  0.07818013    -0.26550
C410        C  0.70522401  0.18809161  0.05723086    -0.14620
C411        C  0.71267104  0.15638827  0.08103256     0.36010
C412        C  0.68379036  0.12927175  0.11928864    -0.26000
C413        C  0.64974562  0.13520039  0.13750850    -0.15240
C414        C  0.64726516  0.17173723  0.12012842     0.37090
N415        N  0.61840855  0.18392293  0.14448483    -0.89490
H416        H  0.66753238  0.22049677  0.06077067     0.18200
H417        H  0.68762355  0.10283393  0.13442611     0.18200
N418        N  0.74886025  0.15064322  0.06769797    -0.88520
H419        H  0.62083641  0.21162762  0.12684380     0.35570
H420        H  0.58640608  0.15893629  0.13926820     0.40670
H421        H  0.76968088  0.17413391  0.04132766     0.40290
H422        H  0.73647400  0.12001204  0.05061159     0.35180
C423        C  0.52130382  0.33621985  0.39995679    -0.26550
C424        C  0.48120670  0.32737252  0.37897921    -0.14620
C425        C  0.44278875  0.28852219  0.39316634     0.36010
C426        C  0.44513089  0.26071374  0.42991783    -0.26120
C427        C  0.48483216  0.27170668  0.45409566    -0.15240
C428        C  0.52350927  0.30909972  0.43778247     0.37090
N429        N  0.56466252  0.32041449  0.46114314    -0.89490
H430        H  0.55076582  0.36589015  0.38905121     0.18200
H431        H  0.41542199  0.23173051  0.44196559     0.18200
N432        N  0.40112123  0.27661912  0.37122768    -0.88520
H433        H  0.58981511  0.34905103  0.44486740     0.35570
H434        H  0.57177407  0.29586486  0.45250144     0.40670
H435        H  0.40374988  0.27650607  0.33100046     0.40290
H436        H  0.39255224  0.29980144  0.38165847     0.35180
C437        C  0.51625145  0.31844033  0.12344698    -0.26550
C438        C  0.48026526  0.32515011  0.12712526    -0.14620
C439        C  0.44305390  0.29937253  0.09629907     0.36010
C440        C  0.44521283  0.27299459  0.05775637    -0.26000
C441        C  0.48258998  0.26950710  0.05058514    -0.15240
C442        C  0.51745241  0.29013090  0.08592751     0.37090
N443        N  0.55355089  0.28229522  0.08398531    -0.89490
H444        H  0.54421298  0.33656945  0.14836429     0.18200
H445        H  0.41747468  0.25526345  0.03242264     0.18200
N446        N  0.40331591  0.30052919  0.10348272    -0.88520
H447        H  0.57561355  0.29895262  0.11376718     0.35570
H448        H  0.57045824  0.29510778  0.04955267     0.40670
H449        H  0.39126903  0.28780465  0.14019162     0.40290
H450        H  0.37944608  0.28020779  0.07705500     0.35180
C451        C  0.43643937  0.11052427  0.41157466    -0.26550
C452        C  0.46907563  0.12533333  0.37326126    -0.14620
C453        C  0.49907740  0.17090583  0.37007120     0.36010
C454        C  0.50024467  0.19842070  0.40965398    -0.26000
C455        C  0.47058702  0.18223550  0.45104050    -0.15240
C456        C  0.43672361  0.13848908  0.44975190     0.37090
N457        N  0.40361337  0.12176851  0.48892192    -0.89490
H458        H  0.41146001  0.07645589  0.41378836     0.18200
H459        H  0.52609332  0.23202442  0.40922507     0.18200
N460        N  0.52866741  0.19053472  0.32762111    -0.88520
H461        H  0.40457025  0.09614616  0.00782650     0.35570
H462        H  0.37325135  0.10911941  0.97081499     0.40670
H463        H  0.51069189  0.18180363  0.29331414     0.40290
H464        H  0.55103949  0.17957910  0.32673882     0.35180
C465        C  0.51503478  0.17057981  0.04088173    -0.26550
C466        C  0.48523599  0.18558374  0.04640908    -0.14620
C467        C  0.45682678  0.17161596  0.08947909     0.36010
C468        C  0.45951701  0.14391421  0.12639765    -0.26000
C469        C  0.48784831  0.12752882  0.11897815    -0.15240
C470        C  0.51485263  0.13984067  0.07499800     0.37090
N471        N  0.54035451  0.11948016  0.06379097    -0.89490
H472        H  0.53602959  0.18012812  0.00713830     0.18200
H473        H  0.43746594  0.13295325  0.15919696     0.18200
N474        N  0.42305984  0.18243693  0.09389901    -0.88520
H475        H  0.55872143  0.13249128  0.03008229     0.35570
H476        H  0.51870254  0.08651002  0.05648416     0.40670
H477        H  0.42686390  0.19805229  0.12933351     0.40290
H478        H  0.39299119  0.15345090  0.09449787     0.35180
C479        C  0.68431175  0.45718081  0.42195686    -0.26550
C480        C  0.70524727  0.49298087  0.45530704    -0.14620
C481        C  0.70096383  0.52977994  0.44639120     0.36010
C482        C  0.67250567  0.52867273  0.40822364    -0.26000
C483        C  0.64772211  0.49124607  0.37803711    -0.15240
C484        C  0.65576610  0.45596664  0.38300473     0.37090
N485        N  0.63378408  0.41837141  0.35032384    -0.89490
H486        H  0.68866759  0.42934245  0.42772448     0.18200
H487        H  0.66864899  0.55697044  0.40377594     0.18200
N488        N  0.72478526  0.56818239  0.97706703    -0.88520
H489        H  0.64175709  0.39470359  0.36085286     0.35570
H490        H  0.64576408  0.42819776  0.31283037     0.40670
H491        H  0.74397566  0.59422274  0.95231600     0.40290
H492        H  0.70230906  0.57472885  0.99530100     0.35180
C493        C  0.71495653  0.52412207  0.08241866    -0.26550
C494        C  0.70164843  0.48669038  0.05234787    -0.14620
C495        C  0.66254275  0.44798471  0.06503107     0.36010
C496        C  0.63565940  0.44891630  0.10381271    -0.26000
C497        C  0.64689917  0.48744389  0.13043863    -0.15240
C498        C  0.68804878  0.52503248  0.12152538     0.37090
N499        N  0.70314978  0.56461530  0.15047423    -0.89490
H500        H  0.74559592  0.55344371  0.07391788     0.18200
H501        H  0.60454810  0.41976099  0.11128177     0.18200
N502        N  0.64871392  0.40736608  0.03910802    -0.88520
H503        H  0.73229074  0.57133552  0.16856346     0.35570
H504        H  0.68162106  0.56063911  0.18032947     0.40670
H505        H  0.67304879  0.40885400  0.01507882     0.40290
H506        H  0.62187246  0.40098603  0.01614639     0.35180
C507        C  0.77299613  0.46220764  0.09034412    -0.26550
C508        C  0.78866084  0.49700977  0.05513282    -0.14620
C509        C  0.82973860  0.53431132  0.06407436     0.36010
C510        C  0.85684299  0.53320323  0.10239171    -0.26000
C511        C  0.84371242  0.49609689  0.13355724    -0.15240
C512        C  0.80005315  0.46124884  0.12964455     0.37090
N513        N  0.78395718  0.42408148  0.16337083    -0.89490
H514        H  0.74074121  0.43425390  0.08472863     0.18200
H515        H  0.88911140  0.56147089  0.10663700     0.18200
N516        N  0.84503983  0.57389319  0.03506309    -0.88520
H517        H  0.75203948  0.40061797  0.15344853     0.35570
H518        H  0.78228098  0.43460435  0.20056507     0.40670
H519        H  0.81935382  0.57449039  0.51597678     0.40290
H520        H  0.86749988  0.57543056  0.50770487     0.35180
C521        C  0.80910942  0.52483462  0.42507881    -0.26550
C522        C  0.78691675  0.48864547  0.45796775    -0.14620
C523        C  0.78984515  0.45094661  0.44848602     0.36010
C524        C  0.81740035  0.45140632  0.40979884    -0.26000
C525        C  0.84330291  0.48910548  0.38089836    -0.15240
C526        C  0.83781293  0.52578916  0.38688673     0.37090
N527        N  0.86098924  0.56440937  0.35569832    -0.89490
H528        H  0.80567246  0.55325225  0.43048285     0.18200
H529        H  0.82089582  0.42295426  0.40478462     0.18200
N530        N  0.76612464  0.41194571  0.47833266    -0.88520
H531        H  0.83772607  0.56863437  0.33559888     0.35570
H532        H  0.88000865  0.56068608  0.32757542     0.40670
H533        H  0.73318031  0.40298849  0.97891384     0.40290
H534        H  0.77838669  0.41767411  0.01585462     0.35180
C535        C  0.76509577  0.49189109  0.00552417     0.00330
C536        C  0.72583999  0.48989946  0.50415283     0.00330
C537        C  0.47921510  0.20743024  0.50030069     0.00330
C538        C  0.48475851  0.24829866  0.50187341     0.00330
C539        C  0.72573618  0.20886564  0.50686003     0.00330
C540        C  0.76202575  0.24896476  0.00437675     0.00330
C541        C  0.49979742  0.75614084  0.50188600     0.00330
C542        C  0.49987256  0.71786173  0.50328155     0.00330
C543        C  0.21303782  0.46547953  0.99637628     0.00330
C544        C  0.25328577  0.46934850  0.49898833     0.00330
C545        C  0.21565607  0.71945463  0.00390810     0.00330
C546        C  0.25463791  0.75712175  0.50369269     0.00330
O547        O  0.91683969  0.37028411  0.85552561    -0.75530
O548        O  0.86540498  0.37805075  0.81114329    -0.54430
C549        C  0.87690146  0.35900515  0.84493128     0.78200
O550        O  0.06443323  0.59029266  0.85884472    -0.60130
O551        O  0.11611099  0.58364604  0.81347567    -0.53160
C552        C  0.10429461  0.60182089  0.84821041     0.70220
O553        O  0.91778887  0.51789916  0.86047115    -0.74690
O554        O  0.86620921  0.45992710  0.81452348    -0.55250
C555        C  0.87799576  0.48957731  0.84917431     0.76220
O556        O  0.06434214  0.43676220  0.84657355    -0.59830
O557        O  0.11498837  0.49663414  0.80276855    -0.52950
C558        C  0.10414784  0.46490068  0.83457891     0.72810
Zr559      Zr  0.99085549  0.42353222  0.82695685     2.54710
O560        O  0.99532524  0.42609645  0.92087771    -0.80400
O561        O  0.98832946  0.35371156  0.82208354    -0.93810
Zr562      Zr  0.99121650  0.53535849  0.83385521     2.64680
O563        O  0.99074654  0.52858832  0.92756376    -0.98770
O564        O  0.99241770  0.60456960  0.83807903    -0.80830
O565        O  0.94850612  0.45837873  0.83194360    -0.84190
O566        O  0.03392650  0.50060402  0.83070364    -2.18900
O567        O  0.06098567  0.44849216  0.64620903    -0.67580
O568        O  0.11556875  0.50484476  0.68971719    -0.52140
C569        C  0.10147649  0.47503461  0.65459249     0.71190
O570        O  0.91763836  0.52217167  0.65531765    -0.60480
O571        O  0.86577304  0.46290374  0.69887032    -0.52460
C572        C  0.87760234  0.49359776  0.66524872     0.73000
O573        O  0.06465536  0.59689654  0.65510764    -0.71880
O574        O  0.11587761  0.58661524  0.69648700    -0.50560
C575        C  0.10436238  0.60674376  0.66427009     0.74380
O576        O  0.91564040  0.37508103  0.64885895    -0.67210
O577        O  0.86433015  0.38055272  0.69618148    -0.54410
C578        C  0.87592842  0.36293215  0.66080628     0.72760
Zr579      Zr  0.98869934  0.42916424  0.67467727     2.77540
O580        O  0.98520417  0.43372029  0.58100069    -0.97960
O581        O  0.98840668  0.36043921  0.67052800    -0.78780
Zr582      Zr  0.99114466  0.54174854  0.68207771     2.70070
O583        O  0.99179376  0.54661621  0.58821260    -0.80030
O584        O  0.99034295  0.60951862  0.69314242    -0.99110
Zr585      Zr  0.90615548  0.44060183  0.75492139     2.21500
Zr586      Zr  0.07567105  0.52384492  0.75252512     2.11130
O587        O  0.03228926  0.50600673  0.67624081    -2.47800
O588        O  0.94743831  0.46472066  0.67722573    -0.79820
O589        O  0.03249193  0.44632857  0.74967492    -0.72010
O590        O  0.94828183  0.51828980  0.75821780    -2.32970
O591        O  0.94717081  0.40401849  0.75142665    -2.29180
O592        O  0.03440012  0.56033265  0.75768442    -0.73770
H593        H  0.05293054  0.50874456  0.86040174     0.78220
H594        H  0.92968965  0.53099210  0.75961729     0.79310
H595        H  0.05031346  0.51598982  0.64561470     0.81540
H596        H  0.92821848  0.37278711  0.75022648     0.79140
H597        H  0.97257052  0.60301728  0.81015494     0.42180
H598        H  0.01522462  0.62719337  0.71642483     0.41150
H599        H  0.97940253  0.51614004  0.57637627     0.40830
H600        H  0.01425611  0.45782452  0.57046593     0.38760
H601        H  0.00320962  0.35969371  0.70264991     0.41890
H602        H  0.96399358  0.33593359  0.79818933     0.36680
H603        H  0.97493790  0.43608286  0.93174784     0.42790
H604        H  0.01721656  0.52692462  0.93573174     0.39210
H605        H  0.98433735  0.40704224  0.56803756     0.44130
H606        H  0.97766410  0.34020538  0.85646240     0.42850
H607        H  0.99726657  0.55748940  0.94054064     0.42990
H608        H  0.99966064  0.62430444  0.65918555     0.43340
O609        O  0.45626858  0.37480770  0.64762908    -0.75530
O610        O  0.51180362  0.37779638  0.69519923    -0.54430
C611        C  0.48285269  0.36125553  0.65925594     0.78200
O612        O  0.53306288  0.59421464  0.64966168    -0.60130
O613        O  0.47525483  0.58955921  0.69384467    -0.53160
C614        C  0.50610633  0.60745218  0.66008611     0.70220
O615        O  0.60285356  0.51773494  0.65016977    -0.74690
O616        O  0.59318668  0.45814947  0.69551467    -0.55250
C617        C  0.61264066  0.48827785  0.66150113     0.76220
O618        O  0.38011938  0.44569295  0.64787853    -0.59830
O619        O  0.39025666  0.50676107  0.68965649    -0.52950
C620        C  0.37032350  0.47551236  0.65692912     0.72810
Zr621      Zr  0.43533184  0.42747634  0.67486444     2.54710
O622        O  0.43521996  0.42795296  0.58080671    -0.80400
O623        O  0.36636158  0.35896384  0.67929050    -0.93810
Zr624      Zr  0.54896126  0.53784617  0.67550368     2.64680
O625        O  0.54809338  0.53558780  0.58142264    -0.98770
O626        O  0.61873638  0.60561122  0.67703123    -0.80830
O627        O  0.51255024  0.46078214  0.67469281    -0.84190
O628        O  0.47175130  0.50460816  0.67310102    -2.18900
O629        O  0.38026509  0.44647107  0.85041552    -0.67580
O630        O  0.38712060  0.50463401  0.80505126    -0.52140
C631        C  0.36849276  0.47447475  0.83939455     0.71190
O632        O  0.60018630  0.51771326  0.85596141    -0.60480
O633        O  0.59339519  0.45940430  0.81128468    -0.52460
C634        C  0.61166209  0.48924258  0.84587498     0.73000
O635        O  0.53083087  0.59515250  0.85362200    -0.71880
O636        O  0.47083990  0.58640948  0.80978907    -0.50560
C637        C  0.50140322  0.60538069  0.84359392     0.74380
O638        O  0.45238220  0.37260072  0.85640168    -0.67210
O639        O  0.51086997  0.37902235  0.81160501    -0.54410
C640        C  0.48082228  0.36118479  0.84612430     0.72760
Zr641      Zr  0.43473575  0.42730873  0.82692663     2.77540
O642        O  0.43410310  0.42812238  0.92104431    -0.97960
O643        O  0.36589371  0.35873789  0.82289621    -0.78780
Zr644      Zr  0.54764571  0.53881878  0.82758197     2.70070
O645        O  0.54613577  0.53912446  0.92161293    -0.80030
O646        O  0.61770603  0.60608498  0.82262582    -0.99110
Zr647      Zr  0.53243240  0.43941288  0.75269449     2.21500
Zr648      Zr  0.45043874  0.52632230  0.74984739     2.11130
O649        O  0.47042818  0.50453492  0.82774461    -2.47800
O650        O  0.51183355  0.46150182  0.82939018    -0.79820
O651        O  0.41330163  0.44862840  0.75052852    -0.72010
O652        O  0.57001071  0.51719813  0.75240789    -2.32970
O653        O  0.45465441  0.40416618  0.75133922    -2.29180
O654        O  0.52825565  0.56128504  0.75064919    -0.73770
H655        H  0.46308187  0.51419009  0.64267029     0.78220
H656        H  0.60126837  0.52916940  0.75283722     0.79310
H657        H  0.46103524  0.51391644  0.85767308     0.81540
H658        H  0.44169801  0.37284495  0.75156668     0.79140
H659        H  0.63407253  0.60303555  0.70764315     0.42180
H660        H  0.61202440  0.62582717  0.80106259     0.41150
H661        H  0.52850528  0.50799241  0.93140109     0.40830
H662        H  0.43806629  0.45696851  0.93031602     0.38760
H663        H  0.35016530  0.36239909  0.79342543     0.41890
H664        H  0.37338100  0.33837883  0.69682345     0.36680
H665        H  0.46650253  0.44410142  0.57109466     0.42790
H666        H  0.52041436  0.53419923  0.57140816     0.39210
H667        H  0.40350001  0.40710750  0.93066965     0.44130
H668        H  0.36018123  0.34869970  0.64308793     0.42850
H669        H  0.57116108  0.56509174  0.57071407     0.42990
H670        H  0.62238832  0.61850862  0.85782800     0.43340
O671        O  0.60428090  0.06055609  0.65675808    -0.75530
O672        O  0.59446185  0.10995776  0.70247167    -0.54430
C673        C  0.61425698  0.09985219  0.66828194     0.78200
O674        O  0.38153113  0.90824651  0.65041417    -0.60130
O675        O  0.38797227  0.85668204  0.69567016    -0.53160
C676        C  0.36930215  0.86835509  0.66157783     0.70220
O677        O  0.45842755  0.05420006  0.64177686    -0.74690
O678        O  0.51244661  0.10612334  0.69207627    -0.55250
C679        C  0.48577682  0.09389022  0.65378197     0.76220
O680        O  0.53717638  0.91415595  0.65270996    -0.59830
O681        O  0.47554518  0.86161300  0.69274310    -0.52950
C682        C  0.50751054  0.87421530  0.66048486     0.72810
Zr683      Zr  0.55118006  0.98566569  0.68118198     2.54710
O684        O  0.55295023  0.98731064  0.58713527    -0.80400
O685        O  0.62106916  0.98827663  0.68860216    -0.93810
Zr686      Zr  0.43730043  0.98166251  0.67342305     2.64680
O687        O  0.44169947  0.97905738  0.57963638    -0.98770
O688        O  0.36976624  0.98401909  0.66894723    -0.80830
O689        O  0.51424227  0.02588934  0.67727170    -0.84190
O690        O  0.47403450  0.94123005  0.67537255    -2.18900
O691        O  0.52674931  0.91039273  0.85736575    -0.67580
O692        O  0.47217211  0.85767901  0.80930292    -0.52140
C693        C  0.50120750  0.87036129  0.84515162     0.71190
O694        O  0.44563823  0.05165492  0.85215376    -0.60480
O695        O  0.50370302  0.10470485  0.80838310    -0.52460
C696        C  0.47281158  0.09200106  0.84181480     0.73000
O697        O  0.37623943  0.90486203  0.85099187    -0.71880
O698        O  0.38900064  0.85533034  0.80981150    -0.50560
C699        C  0.36785732  0.86568466  0.84194468     0.74380
O700        O  0.59473921  0.05665754  0.86315722    -0.67210
O701        O  0.58708472  0.10787919  0.81819952    -0.54410
C702        C  0.60484889  0.09626188  0.85351539     0.72760
Zr703      Zr  0.54383981  0.98346006  0.83313897     2.77540
O704        O  0.53934823  0.98155773  0.92713004    -0.97960
O705        O  0.61444292  0.98720151  0.83426093    -0.78780
Zr706      Zr  0.42978602  0.97922076  0.82545803     2.70070
O707        O  0.42611292  0.97799013  0.91942075    -0.80030
O708        O  0.36009452  0.97676916  0.81649829    -0.99110
Zr709      Zr  0.53023100  0.06664450  0.75513019     2.21500
Zr710      Zr  0.45044961  0.89791073  0.75207447     2.11130
O711        O  0.46695680  0.93920402  0.82986704    -2.47800
O712        O  0.50672832  0.02355536  0.83164713    -0.79820
O713        O  0.52808236  0.94163273  0.75663426    -0.72010
O714        O  0.45261446  0.02318892  0.74999185    -2.32970
O715        O  0.56872119  0.02733979  0.75805586    -2.29180
O716        O  0.41240112  0.93761115  0.74867552    -0.73770
H717        H  0.46623600  0.92309154  0.64499526     0.78220
H718        H  0.43928326  0.04120344  0.74835268     0.79310
H719        H  0.45714662  0.92037078  0.85981940     0.81540
H720        H  0.59986296  0.04692608  0.76017424     0.79140
H721        H  0.36574823  0.99230923  0.70414399     0.42180
H722        H  0.34250795  0.95134691  0.79397723     0.41150
H723        H  0.45691267  0.99140341  0.93069694     0.40830
H724        H  0.51148775  0.95479000  0.93541496     0.38760
H725        H  0.61307353  0.96839105  0.80526145     0.41890
H726        H  0.63961964  0.01476901  0.70912467     0.36680
H727        H  0.53720417  0.00279743  0.57739385     0.42790
H728        H  0.44166880  0.95165577  0.57221702     0.39210
H729        H  0.56225224  0.97511863  0.93852039     0.44130
H730        H  0.63359946  0.99558276  0.65333402     0.42850
H731        H  0.41295531  0.97370275  0.56721732     0.42990
H732        H  0.34625881  0.96759562  0.85097145     0.43340
C733        C  0.34399275  0.80336225  0.90181512    -0.26550
C734        C  0.33329464  0.83073714  0.87393469    -0.14620
C735        C  0.29291800  0.82874021  0.88396376     0.36010
C736        C  0.26616503  0.80213228  0.92414879    -0.26000
C737        C  0.27874550  0.77764682  0.95485021    -0.15240
C738        C  0.31732555  0.77712815  0.94248280     0.37090
N739        N  0.33041657  0.75166927  0.97295057    -0.89490
H740        H  0.37484827  0.80480401  0.89432695     0.18200
H741        H  0.23629715  0.80219341  0.93287868     0.18200
N742        N  0.27804695  0.85319849  0.85442758    -0.88520
H743        H  0.35933018  0.75461923  0.95835623     0.35570
H744        H  0.30664003  0.71892017  0.96879982     0.40670
H745        H  0.29788199  0.86817862  0.82233608     0.40290
H746        H  0.27950871  0.87767343  0.87825149     0.35180
C747        C  0.30798357  0.84818779  0.60038489    -0.26550
C748        C  0.33231282  0.83468750  0.63046202    -0.14620
C749        C  0.32333820  0.79113201  0.62557135     0.36010
C750        C  0.29568665  0.76498356  0.58562265    -0.26000
C751        C  0.27553133  0.78071932  0.55218873    -0.15240
C752        C  0.27945822  0.82152670  0.56179464     0.37090
N753        N  0.25562174  0.83636130  0.53096202    -0.89490
H754        H  0.31241876  0.88048671  0.60548636     0.18200
H755        H  0.29169138  0.73312412  0.57903570     0.18200
N756        N  0.34240672  0.77356123  0.66021834    -0.88520
H757        H  0.26240901  0.86735594  0.54261385     0.35570
H758        H  0.22236590  0.81528991  0.53782889     0.40670
H759        H  0.37577203  0.78911632  0.65264044     0.40290
H760        H  0.33037098  0.74050119  0.65273547     0.35180
C761        C  0.12756167  0.66771999  0.90265469    -0.26550
C762        C  0.13797391  0.63793060  0.88012503    -0.14620
C763        C  0.17779639  0.64031910  0.89363999     0.36010
C764        C  0.20566061  0.67150382  0.92942177    -0.26000
C765        C  0.19294589  0.69785005  0.95538901    -0.15240
C766        C  0.15415182  0.69695833  0.94096428     0.37090
N767        N  0.14078161  0.72405973  0.96721998    -0.89490
H768        H  0.09730257  0.66657959  0.89244620     0.18200
H769        H  0.23538364  0.67216960  0.94082335     0.18200
N770        N  0.18778267  0.60825890  0.87549067    -0.88520
H771        H  0.11092692  0.71882059  0.95281283     0.35570
H772        H  0.16377294  0.75649917  0.95911250     0.40670
H773        H  0.16526164  0.57880999  0.89300661     0.40290
H774        H  0.21861329  0.61506690  0.88826261     0.35180
C775        C  0.16737866  0.63098053  0.60619031    -0.26550
C776        C  0.13889264  0.64130020  0.63197157    -0.14620
C777        C  0.14027023  0.68108338  0.62020559     0.36010
C778        C  0.16813424  0.70795654  0.58080609    -0.26000
C779        C  0.19413309  0.69579983  0.55249116    -0.15240
C780        C  0.19443061  0.65736993  0.56608178     0.37090
N781        N  0.22003101  0.64372239  0.53691457    -0.89490
H782        H  0.16623682  0.60047696  0.61484658     0.18200
H783        H  0.16806013  0.73760171  0.57074574     0.18200
N784        N  0.11416482  0.69531875  0.64725739    -0.88520
H785        H  0.21484067  0.61369467  0.55031229     0.35570
H786        H  0.25296517  0.66619864  0.54300116     0.40670
H787        H  0.09810514  0.67539682  0.67892162     0.40290
H788        H  0.09040985  0.69340933  0.62166229     0.35180
C789        C  0.29842870  0.50535106  0.92055469    -0.26550
C790        C  0.27572248  0.46767329  0.95106044    -0.14620
C791        C  0.27810670  0.43023031  0.93823821     0.36010
C792        C  0.30625208  0.43278045  0.89890275    -0.26000
C793        C  0.33214541  0.47166343  0.87120417    -0.15240
C794        C  0.32589142  0.50757435  0.88031931     0.37090
N795        N  0.34754376  0.54703571  0.85075221    -0.89490
H796        H  0.29660729  0.53417191  0.92959855     0.18200
H797        H  0.30881693  0.40409618  0.89118891     0.18200
N798        N  0.25302583  0.38922082  0.96444665    -0.88520
H799        H  0.33894103  0.53951617  0.81194940     0.35570
H800        H  0.38122002  0.56064867  0.85452317     0.40670
H801        H  0.22998340  0.38939419  0.48931432     0.40290
H802        H  0.27456662  0.38385836  0.48672299     0.35180
C803        C  0.34592576  0.51267918  0.59561679    -0.26550
C804        C  0.33557836  0.47527929  0.62452694    -0.14620
C805        C  0.29414961  0.43753824  0.61786567     0.36010
C806        C  0.26488261  0.43769547  0.58077112    -0.26000
C807        C  0.27721503  0.47393076  0.54846413    -0.15240
C808        C  0.31745425  0.51200572  0.55745642     0.37090
N809        N  0.33054513  0.54950165  0.52564018    -0.89490
H810        H  0.37751855  0.54183548  0.60032716     0.18200
H811        H  0.23364949  0.40850669  0.57480574     0.18200
N812        N  0.28204999  0.39917356  0.64833781    -0.88520
H813        H  0.35761792  0.55401774  0.50463364     0.35570
H814        H  0.33982096  0.57654308  0.54943121     0.40670
H815        H  0.30137875  0.38615684  0.63643917     0.40290
H816        H  0.24977301  0.37527991  0.64065093     0.35180
C817        C  0.13062326  0.42285592  0.88693021    -0.26550
C818        C  0.13953696  0.46213555  0.86285536    -0.14620
C819        C  0.18077702  0.49936910  0.87217559     0.36010
C820        C  0.20334324  0.50058946  0.91741075    -0.26000
C821        C  0.19183583  0.46226037  0.94512713    -0.15240
C822        C  0.15948222  0.42220992  0.92404476     0.37090
N823        N  0.15926596  0.38224698  0.93500404    -0.89490
H824        H  0.10205590  0.39262589  0.87554612     0.18200
H825        H  0.23078938  0.53116803  0.92991901     0.18200
N826        N  0.20201186  0.53278590  0.83354558    -0.88520
H827        H  0.13369508  0.35620179  0.91544422     0.35570
H828        H  0.15468249  0.37466044  0.97409520     0.40670
H829        H  0.18462874  0.54876087  0.82728073     0.40290
H830        H  0.23317848  0.55631056  0.84588134     0.35180
C831        C  0.17561908  0.50554009  0.61279189    -0.26550
C832        C  0.13263130  0.47068175  0.61943842    -0.14620
C833        C  0.11899357  0.43270270  0.58879574     0.36010
C834        C  0.14681793  0.43160811  0.55185558    -0.26000
C835        C  0.18867528  0.46677618  0.54313756    -0.15240
C836        C  0.20352441  0.50393805  0.57480431     0.37090
N837        N  0.24610672  0.54079097  0.56717427    -0.89490
H838        H  0.18708573  0.53490243  0.63550769     0.18200
H839        H  0.13402505  0.40284549  0.52866952     0.18200
N840        N  0.07689552  0.39421121  0.59321574    -0.88520
H841        H  0.26297081  0.54733793  0.60218222     0.35570
H842        H  0.24276691  0.56762938  0.55789580     0.40670
H843        H  0.05276386  0.40046812  0.57963615     0.40290
H844        H  0.07129996  0.38381107  0.63169265     0.35180
C845        C  0.46459041  0.62335428  0.91097476    -0.26550
C846        C  0.50007509  0.63835869  0.87724401    -0.14620
C847        C  0.53469824  0.68208555  0.88154732     0.36010
C848        C  0.53305100  0.70900923  0.92059177    -0.26000
C849        C  0.49779502  0.69306976  0.95544418    -0.15240
C850        C  0.46321990  0.65012636  0.94953540     0.37090
N851        N  0.42722040  0.63276832  0.98446567    -0.89490
H852        H  0.43882581  0.58960334  0.90957871     0.18200
H853        H  0.56028254  0.74182021  0.92516255     0.18200
N854        N  0.57179141  0.70009514  0.84747565    -0.88520
H855        H  0.42681700  0.60672391  0.50393153     0.35570
H856        H  0.39858762  0.62142067  0.46286492     0.40670
H857        H  0.56864445  0.67781062  0.81912200     0.40290
H858        H  0.59921659  0.70685458  0.86953765     0.35180
C859        C  0.47431306  0.65202524  0.62749162    -0.26550
C860        C  0.50953530  0.64416354  0.62844641    -0.14620
C861        C  0.54537992  0.66840331  0.59476714     0.36010
C862        C  0.54233138  0.69494584  0.55679656    -0.26000
C863        C  0.50514319  0.69907138  0.55241573    -0.15240
C864        C  0.47181447  0.67948242  0.59002707     0.37090
N865        N  0.43515842  0.68645558  0.58963769    -0.89490
H866        H  0.44735763  0.63485974  0.65417208     0.18200
H867        H  0.56843158  0.71113602  0.52876763     0.18200
N868        N  0.58417135  0.66500126  0.59788212    -0.88520
H869        H  0.41396925  0.67001101  0.62033601     0.35570
H870        H  0.41735839  0.67340134  0.55585182     0.40670
H871        H  0.59879639  0.67777968  0.63355972     0.40290
H872        H  0.60681221  0.68421530  0.56957067     0.35180
C873        C  0.46765330  0.79499745  0.88183085    -0.26550
C874        C  0.50438591  0.83704322  0.87687185    -0.14620
C875        C  0.54241524  0.84727477  0.90588714     0.36010
C876        C  0.54076056  0.81823554  0.94326776    -0.26000
C877        C  0.50245431  0.77874167  0.95252303    -0.15240
C878        C  0.46654489  0.76531906  0.91897638     0.37090
N879        N  0.42957737  0.72191632  0.92214850    -0.89490
H880        H  0.43901718  0.78586899  0.85834226     0.18200
H881        H  0.56924679  0.82762594  0.96717549     0.18200
N882        N  0.58323373  0.88684077  0.89893436    -0.88520
H883        H  0.40638625  0.71733189  0.89412342     0.35570
H884        H  0.41438896  0.71779625  0.95783324     0.40670
H885        H  0.58082079  0.91318560  0.91279300     0.40290
H886        H  0.59119551  0.89099730  0.85963737     0.35180
C887        C  0.46716428  0.81155324  0.60313693    -0.26550
C888        C  0.50708317  0.84061892  0.62595258    -0.14620
C889        C  0.54491940  0.83926401  0.61107367     0.36010
C890        C  0.54132809  0.80842098  0.57383235    -0.26000
C891        C  0.50121753  0.78061551  0.54960654    -0.15240
C892        C  0.46399702  0.78248918  0.56485100     0.37090
N893        N  0.42292603  0.75627958  0.53993077    -0.89490
H894        H  0.43851269  0.81364227  0.61226689     0.18200
H895        H  0.57026881  0.80781292  0.56141488     0.18200
N896        N  0.58663298  0.86912275  0.63321499    -0.88520
H897        H  0.41369857  0.77729717  0.52318070     0.35570
H898        H  0.39971088  0.73794977  0.56815794     0.40670
H899        H  0.59592632  0.90024736  0.61918336     0.40290
H900        H  0.61041636  0.86209812  0.62019236     0.35180
C901        C  0.82105067  0.26871079  0.56790591    -0.26550
C902        C  0.78523547  0.27247181  0.55199175    -0.14620
C903        C  0.77571179  0.30192355  0.57802839     0.36010
C904        C  0.80389301  0.32858820  0.61690934    -0.26000
C905        C  0.84184780  0.32743922  0.62945201    -0.15240
C906        C  0.84939681  0.29569880  0.60641522     0.37090
N907        N  0.88653908  0.29184885  0.62113510    -0.89490
H908        H  0.82808672  0.24583620  0.54873098     0.18200
H909        H  0.79756292  0.35246649  0.63487168     0.18200
N910        N  0.73887164  0.30683370  0.56532930    -0.88520
H911        H  0.88763571  0.26730441  0.60000652     0.35570
H912        H  0.88240611  0.28214815  0.65987580     0.40670
H913        H  0.72048453  0.28606381  0.53559835     0.40290
H914        H  0.75081789  0.33860308  0.55170833     0.35180
C915        C  0.80459845  0.32550033  0.88911133    -0.26550
C916        C  0.84191232  0.32306411  0.87601474    -0.14620
C917        C  0.84704337  0.28919297  0.89808333     0.36010
C918        C  0.81936065  0.26414182  0.93852417    -0.26000
C919        C  0.78436505  0.26927188  0.95465249    -0.15240
C920        C  0.77567853  0.29861378  0.92775318     0.37090
N921        N  0.73842900  0.30237508  0.94072747    -0.89490
H922        H  0.79896630  0.34993633  0.87130669     0.18200
H923        H  0.82587762  0.24098623  0.95808563     0.18200
N924        N  0.87989919  0.27947330  0.88081876    -0.88520
H925        H  0.74943838  0.33460189  0.95136343     0.35570
H926        H  0.71932209  0.29584766  0.40754099     0.40670
H927        H  0.89239800  0.29407055  0.84507814     0.40290
H928        H  0.86424670  0.24608925  0.87289541     0.35180
C929        C  0.66717659  0.19283706  0.94328894    -0.26550
C930        C  0.70088619  0.18577077  0.95982537    -0.14620
C931        C  0.70540574  0.15209628  0.93716021     0.36010
C932        C  0.67455933  0.12458330  0.90083307    -0.26000
C933        C  0.63945351  0.13011494  0.88622437    -0.15240
C934        C  0.63622387  0.16523560  0.90684933     0.37090
N935        N  0.60020812  0.17119836  0.89329157    -0.89490
H936        H  0.66350100  0.21841237  0.96121572     0.18200
H937        H  0.67737021  0.09793052  0.88458436     0.18200
N938        N  0.74037908  0.14495239  0.95208975    -0.88520
H939        H  0.60283054  0.19865602  0.91166603     0.35570
H940        H  0.57170427  0.14435777  0.90743024     0.40670
H941        H  0.76938736  0.17145542  0.93878000     0.40290
H942        H  0.73763651  0.11743847  0.93375242     0.35180
C943        C  0.67333875  0.19613626  0.57818115    -0.26550
C944        C  0.70522608  0.18808986  0.55723128    -0.14620
C945        C  0.71267228  0.15638570  0.58103210     0.36010
C946        C  0.68379164  0.12926952  0.61928837    -0.26000
C947        C  0.64974753  0.13519900  0.63750870    -0.15240
C948        C  0.64726773  0.17173628  0.62012908     0.37090
N949        N  0.61841095  0.18392194  0.64448512    -0.89490
H950        H  0.66753576  0.22049635  0.56077210     0.18200
H951        H  0.68762414  0.10283112  0.63442528     0.18200
N952        N  0.74886032  0.15063919  0.56769600    -0.88520
H953        H  0.62083950  0.21162711  0.62684464     0.35570
H954        H  0.58640850  0.15893562  0.63926718     0.40670
H955        H  0.76968135  0.17413006  0.54132611     0.40290
H956        H  0.73647281  0.12000827  0.55060850     0.35180
C957        C  0.52128960  0.33621657  0.89997183    -0.26550
C958        C  0.48119333  0.32736697  0.87899025    -0.14620
C959        C  0.44277604  0.28851443  0.89317250     0.36010
C960        C  0.44511850  0.26070425  0.92992137    -0.26120
C961        C  0.48481955  0.27169788  0.95410058    -0.15240
C962        C  0.52349560  0.30909469  0.93779383     0.37090
N963        N  0.56464806  0.32041141  0.96115805    -0.89490
H964        H  0.55075016  0.36588978  0.88907201     0.18200
H965        H  0.41541008  0.23171918  0.94196622     0.18200
N966        N  0.40110917  0.27661130  0.87123193    -0.88520
H967        H  0.58979949  0.34905377  0.94489180     0.35570
H968        H  0.57176552  0.29586703  0.95250891     0.40670
H969        H  0.40373968  0.27650045  0.83100479     0.40290
H970        H  0.39253944  0.29979296  0.88166339     0.35180
C971        C  0.51625631  0.31844569  0.62344830    -0.26550
C972        C  0.48026851  0.32515289  0.62712680    -0.14620
C973        C  0.44305955  0.29937730  0.59629640     0.36010
C974        C  0.44522181  0.27300283  0.55775134    -0.26000
C975        C  0.48260030  0.26951731  0.55058105    -0.15240
C976        C  0.51746108  0.29014053  0.58592557     0.37090
N977        N  0.55356232  0.28230923  0.58398138    -0.89490
H978        H  0.54421645  0.33657405  0.64836783     0.18200
H979        H  0.41748489  0.25527223  0.53241585     0.18200
N980        N  0.40332056  0.30053237  0.60347850    -0.88520
H981        H  0.57562299  0.29896473  0.61376565     0.35570
H982        H  0.57047073  0.29512744  0.54955062     0.40670
H983        H  0.39127162  0.28780502  0.64018585     0.40290
H984        H  0.37945259  0.28021260  0.57704803     0.35180
C985        C  0.43643434  0.11051917  0.91157094    -0.26550
C986        C  0.46907180  0.12533021  0.87325883    -0.14620
C987        C  0.49907281  0.17090302  0.87007108     0.36010
C988        C  0.50023824  0.19841623  0.90965507    -0.26000
C989        C  0.47057933  0.18222877  0.95104032    -0.15240
C990        C  0.43671680  0.13848214  0.94974937     0.37090
N991        N  0.40360566  0.12175943  0.98891833    -0.89490
H992        H  0.41145542  0.07645054  0.91378287     0.18200
H993        H  0.52608625  0.23202042  0.90922835     0.18200
N994        N  0.52866348  0.19053377  0.82762198    -0.88520
H995        H  0.40457755  0.09615545  0.50783117     0.35570
H996        H  0.37325873  0.10912864  0.47081944     0.40670
H997        H  0.51068850  0.18180344  0.79331460     0.40290
H998        H  0.55103587  0.17957858  0.82673908     0.35180
C999        C  0.51504226  0.17058589  0.54088097    -0.26550
C1000       C  0.48524551  0.18559238  0.54640900    -0.14620
C1001       C  0.45683619  0.17162491  0.58947905     0.36010
C1002       C  0.45952381  0.14392043  0.62639612    -0.26000
C1003       C  0.48785245  0.12753197  0.61897525    -0.15240
C1004       C  0.51485738  0.13984424  0.57499558     0.37090
N1005       N  0.54035746  0.11948199  0.56378746    -0.89490
H1006       H  0.53603728  0.18013396  0.50713774     0.18200
H1007       H  0.43747271  0.13295997  0.65919541     0.18200
N1008       N  0.42307156  0.18244896  0.59390046    -0.88520
H1009       H  0.55872522  0.13249367  0.53007944     0.35570
H1010       H  0.51870425  0.08651245  0.55647888     0.40670
H1011       H  0.42687680  0.19806371  0.62933565     0.40290
H1012       H  0.39300175  0.15346420  0.59449861     0.35180
C1013       C  0.68429190  0.45716082  0.92198231    -0.26550
C1014       C  0.70525861  0.49298087  0.95529824    -0.14620
C1015       C  0.70100569  0.52979320  0.94634590     0.36010
C1016       C  0.67254270  0.52868156  0.90818141    -0.26000
C1017       C  0.64772778  0.49123828  0.87803270    -0.15240
C1018       C  0.65574414  0.45594297  0.88303123     0.37090
N1019       N  0.63373181  0.41832934  0.85038393    -0.89490
H1020       H  0.68862680  0.42931230  0.92777524     0.18200
H1021       H  0.66870739  0.55698987  0.90370582     0.18200
N1022       N  0.72470721  0.56815052  0.47715241    -0.88520
H1023       H  0.64168724  0.39465325  0.86093418     0.35570
H1024       H  0.64570312  0.42812644  0.81288195     0.40670
H1025       H  0.74389249  0.59421476  0.45242889     0.40290
H1026       H  0.70220767  0.57466007  0.49539243     0.35180
C1027       C  0.71496106  0.52408554  0.58245877    -0.26550
C1028       C  0.70163632  0.48666759  0.55235537    -0.14620
C1029       C  0.66251218  0.44797000  0.56500731     0.36010
C1030       C  0.63562994  0.44889979  0.60379131    -0.26000
C1031       C  0.64688877  0.48741766  0.63044973    -0.15240
C1032       C  0.68805356  0.52499402  0.62156717     0.37090
N1033       N  0.70316948  0.56456371  0.65054747    -0.89490
H1034       H  0.74561164  0.55340108  0.57397837     0.18200
H1035       H  0.60450565  0.41975332  0.61123683     0.18200
N1036       N  0.64866221  0.40736273  0.53904706    -0.88520
H1037       H  0.73229665  0.57125198  0.66864751     0.35570
H1038       H  0.68163361  0.56058676  0.68039442     0.40670
H1039       H  0.67299703  0.40884450  0.51502261     0.40290
H1040       H  0.62183691  0.40102113  0.51607632     0.35180
C1041       C  0.77299215  0.46218832  0.59033158    -0.26550
C1042       C  0.78865298  0.49699470  0.55512693    -0.14620
C1043       C  0.82972831  0.53429843  0.56407272     0.36010
C1044       C  0.85683448  0.53318994  0.60238732    -0.26000
C1045       C  0.84370789  0.49608124  0.63354686    -0.15240
C1046       C  0.80005097  0.46122896  0.62962940     0.37090
N1047       N  0.78395926  0.42405753  0.66334843    -0.89490
H1048       H  0.74073802  0.43423351  0.58471412     0.18200
H1049       H  0.88910073  0.56146007  0.60663662     0.18200
N1050       N  0.84502435  0.57388392  0.53507057    -0.88520
H1051       H  0.75204374  0.40059115  0.65342196     0.35570
H1052       H  0.78227836  0.43457372  0.70054485     0.40670
H1053       H  0.81937162  0.57450037  0.01596436     0.40290
H1054       H  0.86751415  0.57543229  0.00770061     0.35180
C1055       C  0.80911218  0.52483465  0.92507413    -0.26550
C1056       C  0.78692877  0.48865150  0.95797400    -0.14620
C1057       C  0.78986529  0.45095557  0.94850354     0.36010
C1058       C  0.81741679  0.45141216  0.90981355    -0.26000
C1059       C  0.84330836  0.48910571  0.88089936    -0.15240
C1060       C  0.83781244  0.52578643  0.88687946     0.37090
N1061       N  0.86097992  0.56440124  0.85568021    -0.89490
H1062       H  0.80567054  0.55325025  0.93047132     0.18200
H1063       H  0.82091822  0.42296286  0.90480700     0.18200
N1064       N  0.76615623  0.41196068  0.97836332    -0.88520
H1065       H  0.83771137  0.56861769  0.83558085     0.35570
H1066       H  0.87999854  0.56067640  0.82755757     0.40670
H1067       H  0.73315067  0.40298113  0.47888007     0.40290
H1068       H  0.77834987  0.41764787  0.51582616     0.35180
loop_ 
_geom_bond_atom_site_label_1 
_geom_bond_atom_site_label_2 
_geom_bond_distance 
_geom_bond_site_symmetry_2 
_ccdc_geom_bond_type 
C1          C522   1.488       .  S
C1         C1042   1.492       .  S
C1          C536   1.355       .  D
C2          C494   1.484       .  S
C2         C1014   1.490   1_554  S
C2          C535   1.355       .  D
C3          C466   1.493       .  S
C3          C989   1.500   1_554  S
C3            C4   1.362       .  D
C4          C441   1.491       .  S
C4          C961   1.487   1_554  S
C5          C410   1.493       .  S
C5          C930   1.487   1_554  S
C5          C540   1.358       .  D
C6          C385   1.492       .  S
C6          C902   1.486       .  S
C6          C539   1.358       .  D
C7          C357   1.497       .  S
C7          C877   1.484   1_554  S
C7            C8   1.358       .  D
C8          C329   1.489       .  S
C8          C849   1.501   1_554  S
C9          C287   1.500       .  S
C9          C835   1.500       .  S
C9          C544   1.362       .  D
C10         C273   1.499   1_556  S
C10         C790   1.490       .  S
C10         C543   1.362       .  D
C11         C231   1.483       .  S
C11         C779   1.490       .  S
C11         C546   1.357       .  D
C12         C217   1.486       .  S
C12         C737   1.493   1_554  S
C12         C545   1.357       .  D
O13         Zr25   2.451       .  S
O13          C15   1.291       .  A
O14         Zr51   2.428       .  S
O14          C15   1.288       .  A
C15         C382   1.489       .  S
O16         Zr28   2.424   1_455  S
O16          C18   1.286       .  A
O17         Zr52   2.451       .  S
O17          C18   1.292       .  A
C18         C228   1.490       .  S
O19         Zr28   2.448       .  S
O19          C21   1.289       .  A
O20         Zr51   2.412       .  S
O20          C21   1.284       .  A
C21         C525   1.469       .  S
O22         Zr25   2.453   1_455  S
O22          C24   1.291       .  A
O23         Zr52   2.428       .  S
O23          C24   1.286       .  A
C24         C284   1.495       .  S
Zr25         O26   2.435       .  S
Zr25         O27   2.435       .  S
Zr25         O31   2.375       .  S
Zr25         O32   2.372   1_655  S
Zr25         O55   2.371   1_655  S
Zr25         O57   2.372       .  S
O26          H69   0.990       .  S
O27          H68   0.990       .  S
O27          H72   0.990       .  S
Zr28         O29   2.436       .  S
Zr28         O30   2.435       .  S
Zr28         O32   2.381   1_655  S
Zr28         O31   2.367       .  S
Zr28         O56   2.365       .  S
Zr28         O58   2.375   1_655  S
O29          H70   0.990   1_655  S
O29          H73   0.990       .  S
O30          H63   0.990       .  S
O31         Zr51   2.383       .  S
O32         Zr52   2.393       .  S
O32          H59   0.966       .  S
O33         Zr45   2.407   1_455  S
O33          C35   1.279       .  A
O34         Zr52   2.458       .  S
O34          C35   1.292       .  A
C35         C298   1.496       .  S
O36         Zr48   2.433       .  S
O36          C38   1.288       .  A
O37         Zr51   2.428       .  S
O37          C38   1.287       .  A
C38         C511   1.491       .  S
O39         Zr48   2.444   1_455  S
O39          C41   1.289       .  A
O40         Zr52   2.427       .  S
O40          C41   1.288       .  A
C41         C242   1.479       .  S
O42         Zr45   2.418       .  S
O42          C44   1.284       .  A
O43         Zr51   2.428       .  S
O43          C44   1.287       .  A
C44         C371   1.477       .  S
Zr45         O46   2.437       .  S
Zr45         O47   2.433       .  S
Zr45         O53   2.365   1_655  S
Zr45         O54   2.359       .  S
Zr45         O57   2.362       .  S
Zr45         O55   2.367   1_655  S
O46          H66   0.990   1_655  S
O46          H71   0.990       .  S
O47          H67   0.990   1_655  S
Zr48         O49   2.435       .  S
Zr48         O50   2.434       .  S
Zr48         O54   2.374       .  S
Zr48         O53   2.365   1_655  S
Zr48         O58   2.367   1_655  S
Zr48         O56   2.367       .  S
O49          H65   0.990       .  S
O50          H64   0.990   1_655  S
O50          H74   0.990       .  S
Zr51         O54   2.377       .  S
Zr51         O56   2.388       .  S
Zr51         O57   2.383       .  S
Zr52         O53   2.385       .  S
Zr52         O55   2.385       .  S
Zr52         O58   2.390       .  S
O53          H61   0.966       .  S
O56          H60   0.966       .  S
O57          H62   0.966       .  S
O75         Zr87   2.433       .  S
O75          C77   1.287       .  A
O76        Zr113   2.437       .  S
O76          C77   1.288       .  A
C77         C438   1.492       .  S
O78         Zr90   2.424       .  S
O78          C80   1.285       .  A
O79        Zr114   2.431       .  S
O79          C80   1.289       .  A
C80         C326   1.488       .  S
O81         Zr90   2.436       .  S
O81          C83   1.287       .  A
O82        Zr113   2.411       .  S
O82          C83   1.284       .  A
C83         C497   1.467       .  S
O84         Zr87   2.445       .  S
O84          C86   1.288       .  A
O85        Zr114   2.443       .  S
O85          C86   1.290       .  A
C86         C270   1.485       .  S
Zr87         O88   2.435       .  S
Zr87         O89   2.435       .  S
Zr87         O93   2.372       .  S
Zr87         O94   2.368       .  S
Zr87        O117   2.366       .  S
Zr87        O119   2.372       .  S
O88         H131   0.990       .  S
O89         H130   0.990       .  S
O89         H134   0.990       .  S
Zr90         O91   2.436       .  S
Zr90         O92   2.435       .  S
Zr90         O94   2.373       .  S
Zr90         O93   2.366       .  S
Zr90        O118   2.365       .  S
Zr90        O120   2.372       .  S
O91         H132   0.990       .  S
O91         H135   0.990       .  S
O92         H125   0.990       .  S
O93        Zr113   2.381       .  S
O94        Zr114   2.386       .  S
O94         H121   0.966       .  S
O95        Zr107   2.420       .  S
O95          C97   1.285       .  A
O96        Zr114   2.433       .  S
O96          C97   1.287       .  A
C97         C259   1.487       .  S
O98        Zr110   2.438       .  S
O98         C100   1.289       .  A
O99        Zr113   2.435       .  S
O99         C100   1.288       .  A
C100        C483   1.495       .  S
O101       Zr110   2.447       .  S
O101        C103   1.288       .  A
O102       Zr114   2.437       .  S
O102        C103   1.289       .  A
C103        C312   1.479       .  S
O104       Zr107   2.437       .  S
O104        C106   1.286       .  A
O105       Zr113   2.416       .  S
O105        C106   1.285       .  A
C106        C424   1.474       .  S
Zr107       O108   2.437       .  S
Zr107       O109   2.434       .  S
Zr107       O115   2.372       .  S
Zr107       O116   2.367       .  S
Zr107       O119   2.363       .  S
Zr107       O117   2.371       .  S
O108        H128   0.990       .  S
O108        H133   0.990       .  S
O109        H129   0.990       .  S
Zr110       O111   2.435       .  S
Zr110       O112   2.434       .  S
Zr110       O116   2.375       .  S
Zr110       O115   2.369       .  S
Zr110       O120   2.368       .  S
Zr110       O118   2.369       .  S
O111        H127   0.990       .  S
O112        H126   0.990       .  S
O112        H136   0.990       .  S
Zr113       O116   2.380       .  S
Zr113       O118   2.387       .  S
Zr113       O119   2.386       .  S
Zr114       O115   2.388       .  S
Zr114       O117   2.385       .  S
Zr114       O120   2.387       .  S
O115        H123   0.966       .  S
O118        H122   0.966       .  S
O119        H124   0.966       .  S
O137       Zr149   2.444   1_545  S
O137        C139   1.290       .  A
O138       Zr175   2.424       .  S
O138        C139   1.286       .  A
C139        C413   1.483       .  S
O140       Zr152   2.426       .  S
O140        C142   1.287       .  A
O141       Zr176   2.435       .  S
O141        C142   1.288       .  A
C142        C214   1.492       .  S
O143       Zr152   2.430   1_545  S
O143        C145   1.285       .  A
O144       Zr175   2.427       .  S
O144        C145   1.286       .  A
C145        C469   1.465       .  S
O146       Zr149   2.442       .  S
O146        C148   1.287       .  A
O147       Zr176   2.440       .  S
O147        C148   1.291       .  A
C148        C354   1.485       .  S
Zr149       O150   2.435       .  S
Zr149       O151   2.435       .  S
Zr149       O155   2.369   1_565  S
Zr149       O156   2.377       .  S
Zr149       O179   2.372       .  S
Zr149       O181   2.371   1_565  S
O150        H193   0.990   1_565  S
O151        H192   0.990   1_565  S
O151        H196   0.990       .  S
Zr152       O153   2.437       .  S
Zr152       O154   2.435       .  S
Zr152       O156   2.368       .  S
Zr152       O155   2.367   1_565  S
Zr152       O180   2.367   1_565  S
Zr152       O182   2.370       .  S
O153        H194   0.990       .  S
O153        H197   0.990       .  S
O154        H187   0.990       .  S
O155       Zr175   2.380       .  S
O156       Zr176   2.387       .  S
O156        H183   0.966       .  S
O157       Zr169   2.427       .  S
O157        C159   1.284       .  A
O158       Zr176   2.430       .  S
O158        C159   1.288       .  A
C159        C340   1.487       .  S
O160       Zr172   2.439   1_545  S
O160        C162   1.289       .  A
O161       Zr175   2.424       .  S
O161        C162   1.285       .  A
C162        C452   1.495       .  S
O163       Zr172   2.442       .  S
O163        C165   1.289       .  A
O164       Zr176   2.437       .  S
O164        C165   1.289       .  A
C165        C200   1.481       .  S
O166       Zr169   2.431   1_545  S
O166        C168   1.287       .  A
O167       Zr175   2.432       .  S
O167        C168   1.287       .  A
C168        C399   1.480       .  S
Zr169       O170   2.437       .  S
Zr169       O171   2.434       .  S
Zr169       O177   2.365       .  S
Zr169       O178   2.369   1_565  S
Zr169       O181   2.363   1_565  S
Zr169       O179   2.370       .  S
O170        H190   0.990       .  S
O170        H195   0.990       .  S
O171        H191   0.990       .  S
Zr172       O173   2.435       .  S
Zr172       O174   2.434       .  S
Zr172       O178   2.371   1_565  S
Zr172       O177   2.371       .  S
Zr172       O182   2.368       .  S
Zr172       O180   2.371   1_565  S
O173        H189   0.990       .  S
O174        H188   0.990       .  S
O174        H198   0.990       .  S
Zr175       O178   2.379       .  S
Zr175       O180   2.387       .  S
Zr175       O181   2.387       .  S
Zr176       O177   2.387       .  S
Zr176       O179   2.387       .  S
Zr176       O182   2.386       .  S
O177        H185   0.966       .  S
O180        H184   0.966       .  S
O181        H186   0.966       .  S
C199        C200   1.404       .  A
C199        C204   1.407       .  A
C199        H206   1.084       .  S
C200        C201   1.418       .  A
C201        C202   1.403       .  A
C201        N208   1.437       .  S
C202        C203   1.402       .  A
C202        H207   1.081       .  S
C203        C546   1.493       .  S
C203        C204   1.411       .  A
C204        N205   1.437       .  S
N205        H209   1.045       .  S
N205        H210   1.044       .  S
N208        H211   1.043       .  S
N208        H212   1.046       .  S
C213        C214   1.409       .  A
C213        C218   1.400       .  A
C213        H220   1.083       .  S
C214        C215   1.418       .  A
C215        C216   1.408       .  A
C215        N222   1.437       .  S
C216        C217   1.402       .  A
C216        H221   1.080       .  S
C217        C218   1.405       .  A
C218        N219   1.438       .  S
N219        H223   1.045       .  S
N219        H224   1.045       .  S
N222        H225   1.041       .  S
N222        H226   1.046       .  S
C227        C228   1.408       .  A
C227        C232   1.404       .  A
C227        H234   1.084       .  S
C228        C229   1.412       .  A
C229        C230   1.402       .  A
C229        N236   1.429       .  S
C230        C231   1.396       .  A
C230        H235   1.081       .  S
C231        C232   1.407       .  A
C232        N233   1.437       .  S
N233        H237   1.045       .  S
N233        H238   1.044       .  S
N236        H239   1.046       .  S
N236        H240   1.046       .  S
C241        C242   1.402       .  A
C241        C246   1.403       .  A
C241        H248   1.084       .  S
C242        C243   1.419       .  A
C243        C244   1.405       .  A
C243        N250   1.437       .  S
C244        C245   1.402       .  A
C244        H249   1.083       .  S
C245        C545   1.490       .  S
C245        C246   1.411       .  A
C246        N247   1.437       .  S
N247        H251   1.044       .  S
N247        H252   1.043       .  S
N250        H253   1.043       .  S
N250        H254   1.046       .  S
C255        C256   1.405       .  A
C255        C260   1.399       .  A
C255        H262   1.081       .  S
C256        C544   1.490       .  S
C256        C257   1.412       .  A
C257        C258   1.395       .  A
C257        N264   1.437       .  S
C258        C259   1.408       .  A
C258        H263   1.084       .  S
C259        C260   1.417       .  A
C260        N261   1.432       .  S
N261        H265   1.045       .  S
N261        H266   1.042       .  S
N264        H801   1.041       .  S
N264        H802   1.045       .  S
H267        N798   1.041       .  S
H268        N798   1.045       .  S
C269        C270   1.400       .  A
C269        C274   1.403       .  A
C269        H276   1.085       .  S
C270        C271   1.416       .  A
C271        C272   1.414       .  A
C271        N278   1.438       .  S
C272        C273   1.405       .  A
C272        H277   1.082       .  S
C273        C274   1.407       .  A
C274        N275   1.427       .  S
N275        H279   1.041       .  S
N275        H280   1.046       .  S
N278        H281   1.045       .  S
N278        H282   1.046       .  S
C283        C284   1.408       .  A
C283        C288   1.410       .  A
C283        H290   1.083       .  S
C284        C285   1.415       .  A
C285        C286   1.406       .  A
C285        N292   1.439       .  S
C286        C287   1.403       .  A
C286        H291   1.082       .  S
C287        C288   1.414       .  A
C288        N289   1.440       .  S
N289        H293   1.046       .  S
N289        H294   1.038       .  S
N292        H295   1.036       .  S
N292        H296   1.046       .  S
C297        C298   1.409       .  A
C297        C302   1.414       .  A
C297        H304   1.083       .  S
C298        C299   1.424       .  A
C299        C300   1.387       .  A
C299        N306   1.434       .  S
C300        C301   1.396       .  A
C300        H305   1.070       .  S
C301        C543   1.500   1_554  S
C301        C302   1.413       .  A
C302        N303   1.429       .  S
N303        H307   1.046       .  S
N303        H308   1.043       .  S
N306        H309   1.044       .  S
N306        H310   1.045       .  S
C311        C312   1.396       .  A
C311        C316   1.396       .  A
C311        H318   1.082       .  S
C312        C313   1.420       .  A
C313        C314   1.413       .  A
C313        N320   1.437       .  S
C314        C315   1.407       .  A
C314        H319   1.083       .  S
C315        C542   1.501       .  S
C315        C316   1.405       .  A
C316        N317   1.425       .  S
N317        H855   1.045       .  S
N317        H856   1.045       .  S
N320        H323   1.044       .  S
N320        H324   1.045       .  S
H321        N851   1.045   1_554  S
H322        N851   1.045       .  S
C325        C326   1.406       .  A
C325        C330   1.406       .  A
C325        H332   1.083       .  S
C326        C327   1.418       .  A
C327        C328   1.400       .  A
C327        N334   1.439       .  S
C328        C329   1.399       .  A
C328        H333   1.084       .  S
C329        C330   1.413       .  A
C330        N331   1.436       .  S
N331        H335   1.045       .  S
N331        H336   1.042       .  S
N334        H337   1.046       .  S
N334        H338   1.046       .  S
C339        C340   1.409       .  A
C339        C344   1.409       .  A
C339        H346   1.083       .  S
C340        C341   1.421       .  A
C341        C342   1.391       .  A
C341        N348   1.434       .  S
C342        C343   1.397       .  A
C342        H347   1.084       .  S
C343        C541   1.484       .  S
C343        C344   1.411       .  A
C344        N345   1.438       .  S
N345        H349   1.045       .  S
N345        H350   1.041       .  S
N348        H351   1.044       .  S
N348        H352   1.046       .  S
C353        C354   1.397       .  A
C353        C358   1.395       .  A
C353        H360   1.079       .  S
C354        C355   1.416       .  A
C355        C356   1.416       .  A
C355        N362   1.437       .  S
C356        C357   1.408       .  A
C356        H361   1.083       .  S
C357        C358   1.407       .  A
C358        N359   1.429       .  S
N359        H363   1.045       .  S
N359        H364   1.046       .  S
N362        H365   1.045       .  S
N362        H366   1.046       .  S
C367        C368   1.401       .  A
C367        C372   1.400       .  A
C367        H374   1.081       .  S
C368        C540   1.486       .  S
C368        C369   1.419       .  A
C369        C370   1.401       .  A
C369        N376   1.437       .  S
C370        C371   1.402       .  A
C370        H375   1.084       .  S
C371        C372   1.413       .  A
C372        N373   1.439       .  S
N373        H377   1.046       .  S
N373        H378   1.046       .  S
N376        H379   1.040       .  S
N376        H380   1.045       .  S
C381        C382   1.407       .  A
C381        C386   1.405       .  A
C381        H388   1.083       .  S
C382        C383   1.420       .  A
C383        C384   1.403       .  A
C383        N390   1.439       .  S
C384        C385   1.402       .  A
C384        H389   1.082       .  S
C385        C386   1.406       .  A
C386        N387   1.429       .  S
N387        H391   1.043       .  S
N387        H926   1.045       .  S
N390        H393   1.043       .  S
N390        H394   1.046       .  S
H392        N921   1.045       .  S
C395        C396   1.402       .  A
C395        C400   1.406       .  A
C395        H402   1.083       .  S
C396        C539   1.487       .  S
C396        C397   1.410       .  A
C397        C398   1.402       .  A
C397        N404   1.434       .  S
C398        C399   1.403       .  A
C398        H403   1.084       .  S
C399        C400   1.412       .  A
C400        N401   1.435       .  S
N401        H405   1.046       .  S
N401        H406   1.046       .  S
N404        H407   1.043       .  S
N404        H408   1.046       .  S
C409        C410   1.404       .  A
C409        C414   1.405       .  A
C409        H416   1.080       .  S
C410        C411   1.416       .  A
C411        C412   1.400       .  A
C411        N418   1.435       .  S
C412        C413   1.404       .  A
C412        H417   1.084       .  S
C413        C414   1.414       .  A
C414        N415   1.438       .  S
N415        H419   1.046       .  S
N415        H420   1.040       .  S
N418        H421   1.042       .  S
N418        H422   1.045       .  S
C423        C424   1.400       .  A
C423        C428   1.400       .  A
C423        H430   1.083       .  S
C424        C425   1.415       .  A
C425        C426   1.400       .  A
C425        N432   1.432       .  S
C426        C427   1.403       .  A
C426        H431   1.084       .  S
C427        C538   1.487       .  S
C427        C428   1.410       .  A
C428        N429   1.436       .  S
N429        H433   1.045       .  S
N429        H434   1.044       .  S
N432        H435   1.046       .  S
N432        H436   1.044       .  S
C437        C438   1.410       .  A
C437        C442   1.414       .  A
C437        H444   1.083       .  S
C438        C439   1.416       .  A
C439        C440   1.397       .  A
C439        N446   1.439       .  S
C440        C441   1.401       .  A
C440        H445   1.083       .  S
C441        C442   1.412       .  A
C442        N443   1.437       .  S
N443        H447   1.045       .  S
N443        H448   1.041       .  S
N446        H449   1.046       .  S
N446        H450   1.046       .  S
C451        C452   1.408       .  A
C451        C456   1.398       .  A
C451        H458   1.083       .  S
C452        C453   1.423       .  A
C453        C454   1.402       .  A
C453        N460   1.433       .  S
C454        C455   1.404       .  A
C454        H459   1.079       .  S
C455        C537   1.500       .  S
C455        C456   1.408       .  A
C456        N457   1.433       .  S
N457        H995   1.046       .  S
N457        H996   1.045       .  S
N460        H463   1.046       .  S
N460        H464   1.042       .  S
H461        N991   1.046   1_554  S
H462        N991   1.045       .  S
C465        C466   1.406       .  A
C465        C470   1.398       .  A
C465        H472   1.084       .  S
C466        C467   1.413       .  A
C467        C468   1.405       .  A
C467        N474   1.430       .  S
C468        C469   1.401       .  A
C468        H473   1.084       .  S
C469        C470   1.407       .  A
C470        N471   1.439       .  S
N471        H475   1.046       .  S
N471        H476   1.046       .  S
N474        H477   1.046       .  S
N474        H478   1.045       .  S
C479        C480   1.403       .  A
C479        C484   1.413       .  A
C479        H486   1.082       .  S
C480        C536   1.490       .  S
C480        C481   1.405       .  A
C481        C482   1.397       .  A
C481       N1022   1.432       .  S
C482        C483   1.407       .  A
C482        H487   1.084       .  S
C483        C484   1.420       .  A
C484        N485   1.437       .  S
N485        H489   1.046       .  S
N485        H490   1.046       .  S
N488       C1015   1.432       .  S
N488        H491   1.045       .  S
N488        H492   1.046       .  S
C493        C494   1.403       .  A
C493        C498   1.401       .  A
C493        H500   1.084       .  S
C494        C495   1.415       .  A
C495        C496   1.394       .  A
C495        N502   1.436       .  S
C496        C497   1.400       .  A
C496        H501   1.085       .  S
C497        C498   1.416       .  A
C498        N499   1.439       .  S
N499        H503   1.046       .  S
N499        H504   1.043       .  S
N502        H505   1.042       .  S
N502        H506   1.045       .  S
C507        C508   1.403       .  A
C507        C512   1.409       .  A
C507        H514   1.083       .  S
C508        C535   1.492       .  S
C508        C509   1.411       .  A
C509        C510   1.394       .  A
C509        N516   1.435       .  S
C510        C511   1.407       .  A
C510        H515   1.084       .  S
C511        C512   1.418       .  A
C512        N513   1.437       .  S
N513        H517   1.046       .  S
N513        H518   1.046       .  S
N516       H1053   1.044       .  S
N516       H1054   1.045       .  S
H519       N1050   1.044       .  S
H520       N1050   1.045       .  S
C521        C522   1.405       .  A
C521        C526   1.405       .  A
C521        H528   1.083       .  S
C522        C523   1.413       .  A
C523        C524   1.392       .  A
C523        N530   1.430       .  S
C524        C525   1.398       .  A
C524        H529   1.084       .  S
C525        C526   1.416       .  A
C526        N527   1.438       .  S
N527        H531   1.046       .  S
N527        H532   1.044       .  S
N530       H1067   1.044       .  S
N530       H1068   1.041       .  S
H533       N1064   1.044       .  S
H534       N1064   1.041   1_554  S
C535       C1056   1.488   1_554  S
C536       C1028   1.484       .  S
C537       C1000   1.493       .  S
C537        C538   1.362       .  D
C538        C975   1.491       .  S
C539        C944   1.493       .  S
C540        C919   1.492   1_554  S
C541        C891   1.497       .  S
C541        C542   1.358       .  D
C542        C863   1.489       .  S
C543        C821   1.500       .  S
C544        C807   1.499       .  S
C545        C765   1.483   1_554  S
C546        C751   1.486       .  S
O547       Zr559   2.451       .  S
O547        C549   1.291       .  A
O548       Zr585   2.428       .  S
O548        C549   1.288       .  A
C549        C916   1.489       .  S
O550       Zr562   2.424   1_455  S
O550        C552   1.286       .  A
O551       Zr586   2.451       .  S
O551        C552   1.292       .  A
C552        C762   1.490       .  S
O553       Zr562   2.448       .  S
O553        C555   1.289       .  A
O554       Zr585   2.412       .  S
O554        C555   1.284       .  A
C555       C1059   1.469       .  S
O556       Zr559   2.453   1_455  S
O556        C558   1.291       .  A
O557       Zr586   2.428       .  S
O557        C558   1.286       .  A
C558        C818   1.495       .  S
Zr559       O560   2.435       .  S
Zr559       O561   2.435       .  S
Zr559       O565   2.375       .  S
Zr559       O566   2.372   1_655  S
Zr559       O589   2.371   1_655  S
Zr559       O591   2.372       .  S
O560        H603   0.990       .  S
O561        H602   0.990       .  S
O561        H606   0.990       .  S
Zr562       O563   2.436       .  S
Zr562       O564   2.435       .  S
Zr562       O566   2.381   1_655  S
Zr562       O565   2.367       .  S
Zr562       O590   2.365       .  S
Zr562       O592   2.375   1_655  S
O563        H604   0.990   1_655  S
O563        H607   0.990       .  S
O564        H597   0.990       .  S
O565       Zr585   2.383       .  S
O566       Zr586   2.393       .  S
O566        H593   0.966       .  S
O567       Zr579   2.407   1_455  S
O567        C569   1.279       .  A
O568       Zr586   2.458       .  S
O568        C569   1.292       .  A
C569        C832   1.496       .  S
O570       Zr582   2.433       .  S
O570        C572   1.288       .  A
O571       Zr585   2.428       .  S
O571        C572   1.287       .  A
C572       C1045   1.491       .  S
O573       Zr582   2.444   1_455  S
O573        C575   1.289       .  A
O574       Zr586   2.427       .  S
O574        C575   1.288       .  A
C575        C776   1.479       .  S
O576       Zr579   2.418       .  S
O576        C578   1.284       .  A
O577       Zr585   2.428       .  S
O577        C578   1.287       .  A
C578        C905   1.477       .  S
Zr579       O580   2.437       .  S
Zr579       O581   2.433       .  S
Zr579       O587   2.365   1_655  S
Zr579       O588   2.359       .  S
Zr579       O591   2.362       .  S
Zr579       O589   2.367   1_655  S
O580        H600   0.990   1_655  S
O580        H605   0.990       .  S
O581        H601   0.990   1_655  S
Zr582       O583   2.435       .  S
Zr582       O584   2.434       .  S
Zr582       O588   2.374       .  S
Zr582       O587   2.365   1_655  S
Zr582       O592   2.367   1_655  S
Zr582       O590   2.367       .  S
O583        H599   0.990       .  S
O584        H598   0.990   1_655  S
O584        H608   0.990       .  S
Zr585       O588   2.377       .  S
Zr585       O590   2.388       .  S
Zr585       O591   2.383       .  S
Zr586       O587   2.385       .  S
Zr586       O589   2.385       .  S
Zr586       O592   2.390       .  S
O587        H595   0.966       .  S
O590        H594   0.966       .  S
O591        H596   0.966       .  S
O609       Zr621   2.433       .  S
O609        C611   1.287       .  A
O610       Zr647   2.437       .  S
O610        C611   1.288       .  A
C611        C972   1.492       .  S
O612       Zr624   2.424       .  S
O612        C614   1.285       .  A
O613       Zr648   2.431       .  S
O613        C614   1.289       .  A
C614        C860   1.488       .  S
O615       Zr624   2.436       .  S
O615        C617   1.287       .  A
O616       Zr647   2.411       .  S
O616        C617   1.284       .  A
C617       C1031   1.467       .  S
O618       Zr621   2.445       .  S
O618        C620   1.288       .  A
O619       Zr648   2.443       .  S
O619        C620   1.290       .  A
C620        C804   1.485       .  S
Zr621       O622   2.435       .  S
Zr621       O623   2.435       .  S
Zr621       O627   2.372       .  S
Zr621       O628   2.368       .  S
Zr621       O651   2.366       .  S
Zr621       O653   2.372       .  S
O622        H665   0.990       .  S
O623        H664   0.990       .  S
O623        H668   0.990       .  S
Zr624       O625   2.436       .  S
Zr624       O626   2.435       .  S
Zr624       O628   2.373       .  S
Zr624       O627   2.366       .  S
Zr624       O652   2.365       .  S
Zr624       O654   2.372       .  S
O625        H666   0.990       .  S
O625        H669   0.990       .  S
O626        H659   0.990       .  S
O627       Zr647   2.381       .  S
O628       Zr648   2.386       .  S
O628        H655   0.966       .  S
O629       Zr641   2.420       .  S
O629        C631   1.285       .  A
O630       Zr648   2.433       .  S
O630        C631   1.287       .  A
C631        C793   1.487       .  S
O632       Zr644   2.438       .  S
O632        C634   1.289       .  A
O633       Zr647   2.435       .  S
O633        C634   1.288       .  A
C634       C1017   1.495       .  S
O635       Zr644   2.447       .  S
O635        C637   1.288       .  A
O636       Zr648   2.437       .  S
O636        C637   1.289       .  A
C637        C846   1.479       .  S
O638       Zr641   2.437       .  S
O638        C640   1.286       .  A
O639       Zr647   2.416       .  S
O639        C640   1.285       .  A
C640        C958   1.474       .  S
Zr641       O642   2.437       .  S
Zr641       O643   2.434       .  S
Zr641       O649   2.372       .  S
Zr641       O650   2.367       .  S
Zr641       O653   2.363       .  S
Zr641       O651   2.371       .  S
O642        H662   0.990       .  S
O642        H667   0.990       .  S
O643        H663   0.990       .  S
Zr644       O645   2.435       .  S
Zr644       O646   2.434       .  S
Zr644       O650   2.375       .  S
Zr644       O649   2.369       .  S
Zr644       O654   2.369       .  S
Zr644       O652   2.369       .  S
O645        H661   0.990       .  S
O646        H660   0.990       .  S
O646        H670   0.990       .  S
Zr647       O650   2.380       .  S
Zr647       O652   2.387       .  S
Zr647       O653   2.386       .  S
Zr648       O649   2.388       .  S
Zr648       O651   2.385       .  S
Zr648       O654   2.387       .  S
O649        H657   0.966       .  S
O652        H656   0.966       .  S
O653        H658   0.966       .  S
O671       Zr683   2.444   1_545  S
O671        C673   1.290       .  A
O672       Zr709   2.424       .  S
O672        C673   1.286       .  A
C673        C947   1.483       .  S
O674       Zr686   2.426       .  S
O674        C676   1.287       .  A
O675       Zr710   2.435       .  S
O675        C676   1.288       .  A
C676        C748   1.492       .  S
O677       Zr686   2.430   1_545  S
O677        C679   1.285       .  A
O678       Zr709   2.427       .  S
O678        C679   1.286       .  A
C679       C1003   1.465       .  S
O680       Zr683   2.442       .  S
O680        C682   1.287       .  A
O681       Zr710   2.440       .  S
O681        C682   1.291       .  A
C682        C888   1.485       .  S
Zr683       O684   2.435       .  S
Zr683       O685   2.435       .  S
Zr683       O689   2.369   1_565  S
Zr683       O690   2.377       .  S
Zr683       O713   2.372       .  S
Zr683       O715   2.371   1_565  S
O684        H727   0.990   1_565  S
O685        H726   0.990   1_565  S
O685        H730   0.990       .  S
Zr686       O687   2.437       .  S
Zr686       O688   2.435       .  S
Zr686       O690   2.368       .  S
Zr686       O689   2.367   1_565  S
Zr686       O714   2.367   1_565  S
Zr686       O716   2.370       .  S
O687        H728   0.990       .  S
O687        H731   0.990       .  S
O688        H721   0.990       .  S
O689       Zr709   2.380       .  S
O690       Zr710   2.387       .  S
O690        H717   0.966       .  S
O691       Zr703   2.427       .  S
O691        C693   1.284       .  A
O692       Zr710   2.430       .  S
O692        C693   1.288       .  A
C693        C874   1.487       .  S
O694       Zr706   2.439   1_545  S
O694        C696   1.289       .  A
O695       Zr709   2.424       .  S
O695        C696   1.285       .  A
C696        C986   1.495       .  S
O697       Zr706   2.442       .  S
O697        C699   1.289       .  A
O698       Zr710   2.437       .  S
O698        C699   1.289       .  A
C699        C734   1.481       .  S
O700       Zr703   2.431   1_545  S
O700        C702   1.287       .  A
O701       Zr709   2.432       .  S
O701        C702   1.287       .  A
C702        C933   1.480       .  S
Zr703       O704   2.437       .  S
Zr703       O705   2.434       .  S
Zr703       O711   2.365       .  S
Zr703       O712   2.369   1_565  S
Zr703       O715   2.363   1_565  S
Zr703       O713   2.370       .  S
O704        H724   0.990       .  S
O704        H729   0.990       .  S
O705        H725   0.990       .  S
Zr706       O707   2.435       .  S
Zr706       O708   2.434       .  S
Zr706       O712   2.371   1_565  S
Zr706       O711   2.371       .  S
Zr706       O716   2.368       .  S
Zr706       O714   2.371   1_565  S
O707        H723   0.990       .  S
O708        H722   0.990       .  S
O708        H732   0.990       .  S
Zr709       O712   2.379       .  S
Zr709       O714   2.387       .  S
Zr709       O715   2.387       .  S
Zr710       O711   2.387       .  S
Zr710       O713   2.387       .  S
Zr710       O716   2.386       .  S
O711        H719   0.966       .  S
O714        H718   0.966       .  S
O715        H720   0.966       .  S
C733        C734   1.404       .  A
C733        C738   1.407       .  A
C733        H740   1.084       .  S
C734        C735   1.418       .  A
C735        C736   1.403       .  A
C735        N742   1.437       .  S
C736        C737   1.402       .  A
C736        H741   1.081       .  S
C737        C738   1.411       .  A
C738        N739   1.437       .  S
N739        H743   1.045       .  S
N739        H744   1.044       .  S
N742        H745   1.043       .  S
N742        H746   1.046       .  S
C747        C748   1.409       .  A
C747        C752   1.400       .  A
C747        H754   1.083       .  S
C748        C749   1.418       .  A
C749        C750   1.408       .  A
C749        N756   1.437       .  S
C750        C751   1.402       .  A
C750        H755   1.080       .  S
C751        C752   1.405       .  A
C752        N753   1.438       .  S
N753        H757   1.045       .  S
N753        H758   1.045       .  S
N756        H759   1.041       .  S
N756        H760   1.046       .  S
C761        C762   1.408       .  A
C761        C766   1.404       .  A
C761        H768   1.084       .  S
C762        C763   1.412       .  A
C763        C764   1.402       .  A
C763        N770   1.429       .  S
C764        C765   1.396       .  A
C764        H769   1.081       .  S
C765        C766   1.407       .  A
C766        N767   1.437       .  S
N767        H771   1.045       .  S
N767        H772   1.044       .  S
N770        H773   1.046       .  S
N770        H774   1.046       .  S
C775        C776   1.402       .  A
C775        C780   1.403       .  A
C775        H782   1.084       .  S
C776        C777   1.419       .  A
C777        C778   1.405       .  A
C777        N784   1.437       .  S
C778        C779   1.402       .  A
C778        H783   1.083       .  S
C779        C780   1.411       .  A
C780        N781   1.437       .  S
N781        H785   1.044       .  S
N781        H786   1.043       .  S
N784        H787   1.043       .  S
N784        H788   1.046       .  S
C789        C790   1.405       .  A
C789        C794   1.399       .  A
C789        H796   1.081       .  S
C790        C791   1.412       .  A
C791        C792   1.395       .  A
C791        N798   1.437       .  S
C792        C793   1.408       .  A
C792        H797   1.084       .  S
C793        C794   1.417       .  A
C794        N795   1.432       .  S
N795        H799   1.045       .  S
N795        H800   1.042       .  S
C803        C804   1.400       .  A
C803        C808   1.403       .  A
C803        H810   1.085       .  S
C804        C805   1.416       .  A
C805        C806   1.414       .  A
C805        N812   1.438       .  S
C806        C807   1.405       .  A
C806        H811   1.082       .  S
C807        C808   1.407       .  A
C808        N809   1.427       .  S
N809        H813   1.041       .  S
N809        H814   1.046       .  S
N812        H815   1.045       .  S
N812        H816   1.046       .  S
C817        C818   1.408       .  A
C817        C822   1.410       .  A
C817        H824   1.083       .  S
C818        C819   1.415       .  A
C819        C820   1.406       .  A
C819        N826   1.439       .  S
C820        C821   1.403       .  A
C820        H825   1.082       .  S
C821        C822   1.414       .  A
C822        N823   1.440       .  S
N823        H827   1.046       .  S
N823        H828   1.038       .  S
N826        H829   1.036       .  S
N826        H830   1.046       .  S
C831        C832   1.409       .  A
C831        C836   1.414       .  A
C831        H838   1.083       .  S
C832        C833   1.424       .  A
C833        C834   1.387       .  A
C833        N840   1.434       .  S
C834        C835   1.396       .  A
C834        H839   1.070       .  S
C835        C836   1.413       .  A
C836        N837   1.429       .  S
N837        H841   1.046       .  S
N837        H842   1.043       .  S
N840        H843   1.044       .  S
N840        H844   1.045       .  S
C845        C846   1.396       .  A
C845        C850   1.396       .  A
C845        H852   1.082       .  S
C846        C847   1.420       .  A
C847        C848   1.413       .  A
C847        N854   1.437       .  S
C848        C849   1.407       .  A
C848        H853   1.083       .  S
C849        C850   1.405       .  A
C850        N851   1.425       .  S
N854        H857   1.044       .  S
N854        H858   1.045       .  S
C859        C860   1.406       .  A
C859        C864   1.406       .  A
C859        H866   1.083       .  S
C860        C861   1.418       .  A
C861        C862   1.400       .  A
C861        N868   1.439       .  S
C862        C863   1.399       .  A
C862        H867   1.084       .  S
C863        C864   1.413       .  A
C864        N865   1.436       .  S
N865        H869   1.045       .  S
N865        H870   1.042       .  S
N868        H871   1.046       .  S
N868        H872   1.046       .  S
C873        C874   1.409       .  A
C873        C878   1.409       .  A
C873        H880   1.083       .  S
C874        C875   1.421       .  A
C875        C876   1.391       .  A
C875        N882   1.434       .  S
C876        C877   1.397       .  A
C876        H881   1.084       .  S
C877        C878   1.411       .  A
C878        N879   1.438       .  S
N879        H883   1.045       .  S
N879        H884   1.041       .  S
N882        H885   1.044       .  S
N882        H886   1.046       .  S
C887        C888   1.397       .  A
C887        C892   1.395       .  A
C887        H894   1.079       .  S
C888        C889   1.416       .  A
C889        C890   1.416       .  A
C889        N896   1.437       .  S
C890        C891   1.408       .  A
C890        H895   1.083       .  S
C891        C892   1.407       .  A
C892        N893   1.429       .  S
N893        H897   1.045       .  S
N893        H898   1.046       .  S
N896        H899   1.045       .  S
N896        H900   1.046       .  S
C901        C902   1.401       .  A
C901        C906   1.400       .  A
C901        H908   1.081       .  S
C902        C903   1.419       .  A
C903        C904   1.401       .  A
C903        N910   1.437       .  S
C904        C905   1.402       .  A
C904        H909   1.084       .  S
C905        C906   1.413       .  A
C906        N907   1.439       .  S
N907        H911   1.046       .  S
N907        H912   1.046       .  S
N910        H913   1.040       .  S
N910        H914   1.045       .  S
C915        C916   1.407       .  A
C915        C920   1.405       .  A
C915        H922   1.083       .  S
C916        C917   1.420       .  A
C917        C918   1.403       .  A
C917        N924   1.439       .  S
C918        C919   1.402       .  A
C918        H923   1.082       .  S
C919        C920   1.406       .  A
C920        N921   1.429       .  S
N921        H925   1.043       .  S
N924        H927   1.043       .  S
N924        H928   1.046       .  S
C929        C930   1.402       .  A
C929        C934   1.406       .  A
C929        H936   1.083       .  S
C930        C931   1.410       .  A
C931        C932   1.402       .  A
C931        N938   1.434       .  S
C932        C933   1.403       .  A
C932        H937   1.084       .  S
C933        C934   1.412       .  A
C934        N935   1.435       .  S
N935        H939   1.046       .  S
N935        H940   1.046       .  S
N938        H941   1.043       .  S
N938        H942   1.046       .  S
C943        C944   1.404       .  A
C943        C948   1.405       .  A
C943        H950   1.080       .  S
C944        C945   1.416       .  A
C945        C946   1.400       .  A
C945        N952   1.435       .  S
C946        C947   1.404       .  A
C946        H951   1.084       .  S
C947        C948   1.414       .  A
C948        N949   1.438       .  S
N949        H953   1.046       .  S
N949        H954   1.040       .  S
N952        H955   1.042       .  S
N952        H956   1.045       .  S
C957        C958   1.400       .  A
C957        C962   1.400       .  A
C957        H964   1.083       .  S
C958        C959   1.415       .  A
C959        C960   1.400       .  A
C959        N966   1.432       .  S
C960        C961   1.403       .  A
C960        H965   1.084       .  S
C961        C962   1.410       .  A
C962        N963   1.436       .  S
N963        H967   1.045       .  S
N963        H968   1.044       .  S
N966        H969   1.046       .  S
N966        H970   1.044       .  S
C971        C972   1.410       .  A
C971        C976   1.414       .  A
C971        H978   1.083       .  S
C972        C973   1.416       .  A
C973        C974   1.397       .  A
C973        N980   1.439       .  S
C974        C975   1.401       .  A
C974        H979   1.083       .  S
C975        C976   1.412       .  A
C976        N977   1.437       .  S
N977        H981   1.045       .  S
N977        H982   1.041       .  S
N980        H983   1.046       .  S
N980        H984   1.046       .  S
C985        C986   1.408       .  A
C985        C990   1.398       .  A
C985        H992   1.083       .  S
C986        C987   1.423       .  A
C987        C988   1.402       .  A
C987        N994   1.433       .  S
C988        C989   1.404       .  A
C988        H993   1.079       .  S
C989        C990   1.407       .  A
C990        N991   1.433       .  S
N994        H997   1.046       .  S
N994        H998   1.042       .  S
C999       C1000   1.406       .  A
C999       C1004   1.398       .  A
C999       H1006   1.084       .  S
C1000      C1001   1.413       .  A
C1001      C1002   1.406       .  A
C1001      N1008   1.430       .  S
C1002      C1003   1.401       .  A
C1002      H1007   1.084       .  S
C1003      C1004   1.407       .  A
C1004      N1005   1.439       .  S
N1005      H1009   1.046       .  S
N1005      H1010   1.046       .  S
N1008      H1011   1.046       .  S
N1008      H1012   1.045       .  S
C1013      C1014   1.403       .  A
C1013      C1018   1.412       .  A
C1013      H1020   1.082       .  S
C1014      C1015   1.405       .  A
C1015      C1016   1.397       .  A
C1016      C1017   1.407       .  A
C1016      H1021   1.084       .  S
C1017      C1018   1.420       .  A
C1018      N1019   1.437       .  S
N1019      H1023   1.046       .  S
N1019      H1024   1.046       .  S
N1022      H1025   1.045       .  S
N1022      H1026   1.046       .  S
C1027      C1028   1.403       .  A
C1027      C1032   1.401       .  A
C1027      H1034   1.084       .  S
C1028      C1029   1.415       .  A
C1029      C1030   1.394       .  A
C1029      N1036   1.436       .  S
C1030      C1031   1.400       .  A
C1030      H1035   1.085       .  S
C1031      C1032   1.416       .  A
C1032      N1033   1.439       .  S
N1033      H1037   1.046       .  S
N1033      H1038   1.043       .  S
N1036      H1039   1.042       .  S
N1036      H1040   1.045       .  S
C1041      C1042   1.403       .  A
C1041      C1046   1.409       .  A
C1041      H1048   1.083       .  S
C1042      C1043   1.411       .  A
C1043      C1044   1.394       .  A
C1043      N1050   1.435       .  S
C1044      C1045   1.407       .  A
C1044      H1049   1.084       .  S
C1045      C1046   1.418       .  A
C1046      N1047   1.437       .  S
N1047      H1051   1.046       .  S
N1047      H1052   1.046       .  S
C1055      C1056   1.405       .  A
C1055      C1060   1.405       .  A
C1055      H1062   1.083       .  S
C1056      C1057   1.413       .  A
C1057      C1058   1.392       .  A
C1057      N1064   1.430       .  S
C1058      C1059   1.398       .  A
C1058      H1063   1.084       .  S
C1059      C1060   1.416       .  A
C1060      N1061   1.438       .  S
N1061      H1065   1.046       .  S
N1061      H1066   1.044       .  S
