geometry optimzed in LAMMPS
_audit_creation_date              2020-11-30 
_audit_creation_method            'lammps2cif' 
_symmetry_space_group_name_H-M    'P1' 
_symmetry_Int_Tables_number       1 
_symmetry_cell_setting            triclinic 
loop_ 
_symmetry_equiv_pos_as_xyz 
  x,y,z 
_cell_length_a                    36.02338331 
_cell_length_b                    27.81932632400874 
_cell_length_c                    25.17278437124697 
_cell_angle_alpha                 90.37043834227563 
_cell_angle_beta                  94.21429390579499 
_cell_angle_gamma                 90.6604383513469 
loop_ 
_atom_site_label 
_atom_site_type_symbol 
_atom_site_fract_x 
_atom_site_fract_y 
_atom_site_fract_z 
_atom_site_charge 
O1          O  0.04789314  0.99894647  0.94801750    -0.72800
O2          O  0.43916508  0.99980128  0.96982758    -0.73700
O3          O  0.49380799  0.07193117  0.95942325    -0.62400
O4          O  0.99208389  0.92690987  0.96037614    -0.70800
O5          O  0.00640824  0.92854970  0.04733686    -0.70300
O6          O  0.50738110  0.07246013  0.04660617    -0.61600
O7          O  0.45169159  0.00041337  0.05747548    -0.74100
O8          O  0.06101078  0.00042469  0.03554582    -0.72900
Cu9        Cu  0.49286697  0.99937734  0.95632916     1.04600
Cu10       Cu  0.00705264  0.00049893  0.04975860     1.04300
C11         C  0.07164417  0.99955040  0.98822583     0.93400
C12         C  0.42818997  0.00010867  0.01686083     0.92600
C13         C  0.00062070  0.09521192  0.00313637     0.84700
C14         C  0.49883156  0.90470368  0.00433482     0.91000
O15         O  0.00141998  0.07402118  0.56277604    -0.72800
O16         O  0.00566490  0.92816205  0.56316037    -0.73700
O17         O  0.05880098  0.00391779  0.56568513    -0.62400
O18         O  0.44816663  0.99836604  0.56501872    -0.70800
O19         O  0.44286677  0.00245759  0.47682821    -0.70300
O20         O  0.05527110  0.99717303  0.47758501    -0.61600
O21         O  0.99619854  0.92818829  0.47552000    -0.74100
O22         O  0.00205644  0.07103213  0.47520402    -0.72900
Cu23       Cu  0.00364908  0.00111872  0.56731523     1.04600
Cu24       Cu  0.99894773  0.99968854  0.47325534     1.04300
C25         C  0.00152261  0.09564279  0.51794517     0.93400
C26         C  0.00111651  0.90500245  0.51888633     0.92600
C27         C  0.07463844  0.00047177  0.52227781     0.84700
C28         C  0.42792761  0.00064145  0.52146083     0.91000
O29         O  0.29916846  0.99959052  0.94835702    -0.72800
O30         O  0.18918085  0.99901254  0.96531657    -0.73700
O31         O  0.24373562  0.07109014  0.95590158    -0.62400
O32         O  0.24330693  0.92734860  0.95713029    -0.70800
O33         O  0.25586096  0.92808929  0.04448399    -0.70300
O34         O  0.25665163  0.07298474  0.04313449    -0.61600
O35         O  0.20110445  0.00047717  0.05309212    -0.74100
O36         O  0.31053700  0.00067649  0.03622058    -0.72900
Cu37       Cu  0.24354590  0.99920631  0.95363165     1.04600
Cu38       Cu  0.25635517  0.00058964  0.04731879     1.04300
C39         C  0.32214839  0.00019126  0.98956743     0.93400
C40         C  0.17789898  0.99981951  0.01224724     0.92600
C41         C  0.25021702  0.09508285  0.99905148     0.84700
C42         C  0.24950318  0.90468540  0.00078104     0.91000
O43         O  0.19154715  0.99523694  0.44073326    -0.72800
O44         O  0.30204324  0.00514787  0.44033208    -0.73700
O45         O  0.25051826  0.92753873  0.44265424    -0.62400
O46         O  0.24299148  0.07283479  0.44292642    -0.70800
O47         O  0.25273817  0.07233671  0.53056393    -0.70300
O48         O  0.25004633  0.92960523  0.53017760    -0.61600
O49         O  0.30768842  0.00062506  0.52848364    -0.74100
O50         O  0.19526458  0.00125249  0.52889670    -0.72900
Cu51       Cu  0.24662552  0.00019505  0.43851978     1.04600
Cu52       Cu  0.25162000  0.00097194  0.53257650     1.04300
C53         C  0.17580815  0.99762964  0.48431401     0.93400
C54         C  0.32245407  0.00338798  0.48377880     0.92600
C55         C  0.25074512  0.90540366  0.48717711     0.84700
C56         C  0.24720259  0.09566159  0.48741325     0.91000
N57         N  0.49845966  0.77787610  0.95023248    -0.36400
N58         N  0.49770836  0.78133846  0.06486332    -0.57000
N59         N  0.49761642  0.67649230  0.06770656    -0.36400
N60         N  0.50177083  0.67319266  0.95354397    -0.57000
C61         C  0.50752861  0.82459163  0.96034437     0.27200
C62         C  0.50938716  0.76712921  0.90133858     0.27200
C63         C  0.50460403  0.68722248  0.12000023     0.27200
C64         C  0.50645857  0.62982061  0.06089126     0.27200
C65         C  0.48888709  0.82738636  0.05302687     0.35800
C66         C  0.48848824  0.77376566  0.11528041     0.35800
C67         C  0.49610292  0.67946633  0.90044724     0.35800
C68         C  0.49624427  0.62588041  0.96227482     0.35800
C69         C  0.52499433  0.84336124  0.91751045    -0.21700
C70         C  0.52560143  0.80729863  0.87997173    -0.21700
C71         C  0.51760408  0.64664290  0.14686873    -0.21700
C72         C  0.51889177  0.61049027  0.10952498    -0.21700
C73         C  0.47331131  0.84877697  0.09601500    -0.22800
C74         C  0.47366973  0.81508434  0.13566876    -0.22800
C75         C  0.48725299  0.63596128  0.87522467    -0.22800
C76         C  0.48723889  0.60198218  0.91446365    -0.22800
C77         C  0.49799908  0.85094125  0.00573267    -0.18100
C78         C  0.50244032  0.72303831  0.87421462    -0.18100
C79         C  0.50163547  0.60360628  0.01246681    -0.18100
C80         C  0.49653172  0.73146107  0.14445913    -0.18100
H81         H  0.53623867  0.87922410  0.91327697     0.14800
H82         H  0.53678574  0.81038391  0.84138753     0.14800
H83         H  0.52480868  0.64302141  0.18912352     0.14800
H84         H  0.52760364  0.57396415  0.11743662     0.14800
H85         H  0.46281651  0.88486950  0.09905560     0.13100
H86         H  0.46418749  0.82056685  0.17502245     0.13100
H87         H  0.48212001  0.62919714  0.83291743     0.13100
H88         H  0.48168960  0.56395777  0.90834575     0.13100
H89         H  0.48168966  0.75627920  0.97237295     0.26300
H90         H  0.48358962  0.69818858  0.03954970     0.26300
N91         N  0.49971585  0.78133690  0.45558469    -0.36400
N92         N  0.50169483  0.77783872  0.57033120    -0.57000
N93         N  0.49882542  0.67275135  0.56410383    -0.36400
N94         N  0.49907936  0.67650565  0.44973142    -0.57000
C95         C  0.51008538  0.82705561  0.46936927     0.27200
C96         C  0.50947868  0.77338748  0.40532848     0.27200
C97         C  0.50649184  0.67956017  0.61700087     0.27200
C98         C  0.50530498  0.62602504  0.55326938     0.27200
C99         C  0.49304551  0.82461071  0.56267384     0.35800
C100        C  0.49272551  0.76688869  0.62004659     0.35800
C101        C  0.49349502  0.68631415  0.39732921     0.35800
C102        C  0.49282061  0.62882718  0.45487166     0.35800
C103        C  0.52741571  0.84785420  0.42750343    -0.21700
C104        C  0.52642728  0.81435877  0.38693223    -0.21700
C105        C  0.51760242  0.63646835  0.64025148    -0.21700
C106        C  0.51681800  0.60268712  0.60004426    -0.21700
C107        C  0.47799235  0.84309359  0.60756673    -0.22800
C108        C  0.47854253  0.80689204  0.64419532    -0.22800
C109        C  0.48402071  0.64449191  0.36891298    -0.22800
C110        C  0.48360370  0.60806694  0.40541235    -0.22800
C111        C  0.50139678  0.85101844  0.51707278    -0.18100
C112        C  0.50079225  0.73140450  0.37451218    -0.18100
C113        C  0.49848522  0.60330232  0.50301368    -0.18100
C114        C  0.49990560  0.72236863  0.64517910    -0.18100
H115        H  0.53961972  0.88344977  0.42580101     0.14800
H116        H  0.53700999  0.81981714  0.34828867     0.14800
H117        H  0.52450200  0.62954606  0.68203146     0.14800
H118        H  0.52323057  0.56500810  0.60503868     0.14800
H119        H  0.46734962  0.87865973  0.61388944     0.13100
H120        H  0.46930734  0.80999150  0.68395689     0.13100
H121        H  0.47908088  0.64024441  0.32621434     0.13100
H122        H  0.47807060  0.57046201  0.39637214     0.13100
H123        H  0.48266667  0.75902072  0.47646944     0.26300
H124        H  0.48554976  0.69713792  0.53831949     0.26300
N125        N  0.24959097  0.78064953  0.94027671    -0.36400
N126        N  0.24825117  0.77864827  0.05463005    -0.57000
N127        N  0.24606361  0.67392433  0.05052695    -0.36400
N128        N  0.25130011  0.67608458  0.93661778    -0.57000
C129        C  0.25949782  0.82648337  0.95379550     0.27200
C130        C  0.26130644  0.77213442  0.89127612     0.27200
C131        C  0.25410454  0.68209268  0.10309995     0.27200
C132        C  0.25510191  0.62787964  0.04058587     0.27200
C133        C  0.23989458  0.82531949  0.04582019     0.35800
C134        C  0.23848345  0.76852634  0.10415300     0.35800
C135        C  0.24546495  0.68544948  0.88412093     0.35800
C136        C  0.24307966  0.62901525  0.94256299     0.35800
C137        C  0.27838313  0.84681974  0.91314005    -0.21700
C138        C  0.27916947  0.81265882  0.87352519    -0.21700
C139        C  0.26862429  0.64084634  0.12687828    -0.21700
C140        C  0.26915766  0.60650805  0.08734684    -0.21700
C141        C  0.22409291  0.84458993  0.08978785    -0.22800
C142        C  0.22358190  0.80869217  0.12692409    -0.22800
C143        C  0.23341023  0.64419355  0.85653824    -0.22800
C144        C  0.23188260  0.60834620  0.89367615    -0.22800
C145        C  0.24940274  0.85093116  0.00019916    -0.18100
C146        C  0.25382362  0.72989852  0.86076755    -0.18100
C147        C  0.24845855  0.60402289  0.99106236    -0.18100
C148        C  0.24583374  0.72465476  0.13045365    -0.18100
H149        H  0.29049522  0.88250534  0.91180853     0.14800
H150        H  0.29143770  0.81715871  0.83585885     0.14800
H151        H  0.27736826  0.63576440  0.16850562     0.14800
H152        H  0.27844521  0.56985615  0.09253830     0.14800
H153        H  0.21389543  0.88057192  0.09505542     0.13100
H154        H  0.21351595  0.81182050  0.16625696     0.13100
H155        H  0.22687467  0.64019214  0.81407531     0.13100
H156        H  0.22393381  0.57123602  0.88554855     0.13100
H157        H  0.23185118  0.75850034  0.96029201     0.26300
H158        H  0.23107852  0.69655796  0.02437763     0.26300
N159        N  0.25188520  0.77761279  0.43590832    -0.36400
N160        N  0.25040871  0.67270758  0.44042194    -0.57000
N161        N  0.25450739  0.67796229  0.55515151    -0.36400
N162        N  0.25170174  0.78295696  0.55060482    -0.57000
C163        C  0.24017140  0.76515324  0.38541859     0.27200
C164        C  0.24156864  0.82368972  0.44344358     0.27200
C165        C  0.24668837  0.63063388  0.54749890     0.27200
C166        C  0.24743817  0.68890488  0.60575905     0.27200
C167        C  0.25542956  0.67858889  0.38822493     0.35800
C168        C  0.25741426  0.62606006  0.45134506     0.35800
C169        C  0.26150359  0.82871280  0.53928160     0.35800
C170        C  0.26209008  0.77611495  0.60275684     0.35800
C171        C  0.22187747  0.80333117  0.36059813    -0.21700
C172        C  0.22230109  0.84008811  0.39734809    -0.21700
C173        C  0.23476639  0.61114922  0.59396771    -0.21700
C174        C  0.23493659  0.64803937  0.63063711    -0.21700
C175        C  0.26555989  0.63550312  0.36578054    -0.22800
C176        C  0.26651860  0.60207810  0.40572886    -0.22800
C177        C  0.27893477  0.85040479  0.58456127    -0.22800
C178        C  0.27864881  0.81738076  0.62481636    -0.22800
C179        C  0.24793962  0.72144922  0.36000002    -0.18100
C180        C  0.25172333  0.85149775  0.48977857    -0.18100
C181        C  0.25536716  0.73367095  0.63120871    -0.18100
C182        C  0.25257382  0.60417694  0.50082887    -0.18100
H183        H  0.20938438  0.80448461  0.32018190     0.14800
H184        H  0.20939813  0.87457382  0.39040398     0.14800
H185        H  0.22717813  0.57411707  0.60104683     0.14800
H186        H  0.22748265  0.64482293  0.67135106     0.14800
H187        H  0.27097956  0.62858301  0.32473299     0.13100
H188        H  0.27268955  0.56433712  0.40141653     0.13100
H189        H  0.29127775  0.88593484  0.58874394     0.13100
H190        H  0.28995749  0.82281270  0.66547534     0.13100
H191        H  0.26983709  0.75779751  0.46142719     0.26300
H192        H  0.26819339  0.70016382  0.52963968     0.26300
N193        N  0.50027289  0.21925810  0.06364016    -0.36400
N194        N  0.50250566  0.22108751  0.94908817    -0.57000
N195        N  0.50616508  0.32583235  0.95344899    -0.36400
N196        N  0.49925904  0.32373180  0.06746972    -0.57000
C197        C  0.49032503  0.17345278  0.05008803     0.27200
C198        C  0.48884551  0.22773640  0.11281715     0.27200
C199        C  0.49914458  0.31791277  0.90061042     0.27200
C200        C  0.49751013  0.37207284  0.96317667     0.27200
C201        C  0.51076804  0.17446398  0.95846526     0.35800
C202        C  0.51356184  0.23109745  0.90018397     0.35800
C203        C  0.50544015  0.31420225  0.11991592     0.35800
C204        C  0.50813714  0.37060864  0.06147539     0.35800
C205        C  0.47158740  0.15307005  0.09086007    -0.21700
C206        C  0.47097301  0.18720767  0.13059354    -0.21700
C207        C  0.48577168  0.35959639  0.87644443    -0.21700
C208        C  0.48486349  0.39386587  0.91596944    -0.21700
C209        C  0.52768339  0.15509809  0.91552172    -0.22800
C210        C  0.52908114  0.19089495  0.87839179    -0.22800
C211        C  0.51839428  0.35516225  0.14733115    -0.22800
C212        C  0.51997876  0.39100882  0.11023766    -0.22800
C213        C  0.50064684  0.14896509  0.00382137    -0.18900
C214        C  0.49680302  0.26986535  0.14343062    -0.18100
C215        C  0.50325609  0.39572775  0.01299327    -0.18100
C216        C  0.50708957  0.27501496  0.87352088    -0.18100
H217        H  0.45967995  0.11727368  0.09229470     0.14800
H218        H  0.45896542  0.18260653  0.16843611     0.14800
H219        H  0.47791492  0.36502217  0.83460644     0.14800
H220        H  0.47620989  0.43074324  0.91047706     0.14800
H221        H  0.53816898  0.11914259  0.91110248     0.13100
H222        H  0.54030294  0.18776940  0.83980959     0.13100
H223        H  0.52563532  0.35896341  0.18964902     0.13100
H224        H  0.52868956  0.42787670  0.11823845     0.13100
H225        H  0.51805250  0.24132742  0.04358863     0.26300
H226        H  0.52012207  0.30272047  0.98017918     0.26300
N227        N  0.49963680  0.22310061  0.56798552    -0.36400
N228        N  0.50012701  0.21758713  0.45377030    -0.57000
N229        N  0.49655658  0.32207391  0.44948969    -0.36400
N230        N  0.49817425  0.32737039  0.56348715    -0.57000
C231        C  0.51137170  0.17774016  0.56017718     0.27200
C232        C  0.51200120  0.23628938  0.61794559     0.27200
C233        C  0.50541070  0.31091655  0.39970631     0.27200
C234        C  0.50511918  0.36910365  0.45800479     0.27200
C235        C  0.49035556  0.17191647  0.46524924     0.35800
C236        C  0.48936224  0.22447135  0.40181873     0.35800
C237        C  0.49220014  0.32087667  0.61522659     0.35800
C238        C  0.48956508  0.37340343  0.55200977     0.35800
C239        C  0.53233395  0.16252518  0.60529991    -0.21700
C240        C  0.53245515  0.19943854  0.64195059    -0.21700
C241        C  0.52014204  0.35116748  0.37631709    -0.21700
C242        C  0.51972395  0.38803845  0.41301575    -0.21700
C243        C  0.47246972  0.15022864  0.42031590    -0.22800
C244        C  0.47238307  0.18333934  0.38002648    -0.22800
C245        C  0.47927778  0.36285499  0.63689633    -0.22800
C246        C  0.47780501  0.39635412  0.59679813    -0.22800
C247        C  0.50073650  0.14941573  0.51460011    -0.18100
C248        C  0.50229300  0.27898747  0.64369516    -0.18100
C249        C  0.49679755  0.39575218  0.50357871    -0.18100
C250        C  0.49672059  0.26671714  0.37349729    -0.18100
H251        H  0.54619558  0.12854555  0.61154884     0.14800
H252        H  0.54580390  0.19909537  0.68190275     0.14800
H253        H  0.52927344  0.35403939  0.33643225     0.14800
H254        H  0.52840088  0.42476510  0.40661205     0.14800
H255        H  0.46025017  0.11460942  0.41640050     0.13100
H256        H  0.46080915  0.17794848  0.33949247     0.13100
H257        H  0.47284085  0.36914764  0.67766717     0.13100
H258        H  0.47013635  0.43361955  0.60077856     0.13100
H259        H  0.48026676  0.24158274  0.54324546     0.26300
H260        H  0.48097048  0.30046940  0.47334859     0.26300
N261        N  0.24840331  0.22177177  0.05328825    -0.36400
N262        N  0.25004536  0.21867513  0.93882049    -0.57000
N263        N  0.25190116  0.32362923  0.93713637    -0.36400
N264        N  0.24684638  0.32640987  0.05123173    -0.57000
C265        C  0.23997279  0.17489113  0.04302058     0.27200
C266        C  0.23763682  0.23207571  0.10241147     0.27200
C267        C  0.24449268  0.31334706  0.88481406     0.27200
C268        C  0.24362911  0.37041459  0.94436323     0.27200
C269        C  0.25910023  0.17268085  0.95048989     0.35800
C270        C  0.25966337  0.22662797  0.88867445     0.35800
C271        C  0.25182171  0.31968002  0.10433632     0.35800
C272        C  0.25353194  0.37355137  0.04296758     0.35800
C273        C  0.22291880  0.15556243  0.08591852    -0.21700
C274        C  0.22204390  0.19139122  0.12366895    -0.21700
C275        C  0.23182541  0.35428473  0.85837271    -0.21700
C276        C  0.23117031  0.39024525  0.89600014    -0.21700
C277        C  0.27515170  0.15173892  0.90761047    -0.22800
C278        C  0.27482733  0.18561712  0.86818967    -0.22800
C279        C  0.26125707  0.36284484  0.13000878    -0.22800
C280        C  0.26256340  0.39694272  0.09105728    -0.22800
C281        C  0.25010188  0.14885252  0.99767848    -0.18100
C282        C  0.24479242  0.27596198  0.13006691    -0.18100
C283        C  0.24887942  0.39624253  0.99294383    -0.18100
C284        C  0.25192520  0.26915761  0.85990490    -0.18100
H285        H  0.21228439  0.11940588  0.09023286     0.14800
H286        H  0.21134271  0.18756916  0.16247287     0.14800
H287        H  0.22441574  0.35824374  0.81621155     0.14800
H288        H  0.22278126  0.42695291  0.88845987     0.14800
H289        H  0.28613827  0.11591468  0.90452662     0.13100
H290        H  0.28479170  0.18057341  0.82905655     0.13100
H291        H  0.26603272  0.36938691  0.17239458     0.13100
H292        H  0.26888994  0.43474373  0.09754569     0.13100
H293        H  0.26499838  0.24363355  0.03125379     0.26300
H294        H  0.26578879  0.30153421  0.96502870     0.26300
N295        N  0.24583791  0.22238222  0.43491153    -0.36400
N296        N  0.24591047  0.21919820  0.54956686    -0.57000
N297        N  0.24699550  0.32394650  0.55343151    -0.36400
N298        N  0.24975442  0.32714596  0.43911879    -0.57000
C299        C  0.25541581  0.17617520  0.44465152     0.27200
C300        C  0.25674473  0.23339495  0.38616516     0.27200
C301        C  0.25347146  0.31381237  0.60575932     0.27200
C302        C  0.25565085  0.37094880  0.54713192     0.27200
C303        C  0.23702382  0.17283033  0.53735087     0.35800
C304        C  0.23727782  0.22666004  0.60033893     0.35800
C305        C  0.24401670  0.32069702  0.38595319     0.35800
C306        C  0.24519289  0.37448952  0.44846701     0.35800
C307        C  0.27335403  0.15817905  0.40188261    -0.21700
C308        C  0.27351655  0.19397775  0.36461884    -0.21700
C309        C  0.26586625  0.35510209  0.63313137    -0.21700
C310        C  0.26722369  0.39111253  0.59615117    -0.21700
C311        C  0.22192163  0.15113132  0.58057126    -0.22800
C312        C  0.22279674  0.18491064  0.62065870    -0.22800
C313        C  0.23631273  0.36419269  0.36122445    -0.22800
C314        C  0.23719274  0.39837002  0.40088364    -0.22800
C315        C  0.24594667  0.14944366  0.48956465    -0.18100
C316        C  0.24944933  0.27695941  0.35929462    -0.18100
C317        C  0.25072482  0.39679462  0.49899891    -0.18100
C318        C  0.24543427  0.26939406  0.62979700    -0.18100
H319        H  0.28536024  0.12307795  0.39748817     0.14800
H320        H  0.28494194  0.19120820  0.32618208     0.14800
H321        H  0.27241642  0.35937523  0.67553999     0.14800
H322        H  0.27519707  0.42813691  0.60469032     0.14800
H323        H  0.21128957  0.11484111  0.58360026     0.13100
H324        H  0.21379125  0.17918769  0.66021103     0.13100
H325        H  0.23156831  0.37084161  0.31896788     0.13100
H326        H  0.23301566  0.43650413  0.39518311     0.13100
H327        H  0.22873838  0.24332011  0.45717787     0.26300
H328        H  0.23333255  0.30163318  0.52501211     0.26300
C329        C  0.28323823  0.26842522  0.77423535    -0.13200
C330        C  0.25039021  0.26720482  0.80085960     0.09000
C331        C  0.21583029  0.26573422  0.77118179    -0.13200
C332        C  0.21411438  0.26626990  0.71550919    -0.13200
C333        C  0.24696987  0.26738429  0.68886122     0.09000
C334        C  0.28153444  0.26806492  0.71856404    -0.13200
H335        H  0.31008839  0.26986048  0.79660747     0.13000
H336        H  0.19024745  0.26502494  0.79125729     0.13000
H337        H  0.18724708  0.26601292  0.69315920     0.13000
H338        H  0.30712160  0.26915732  0.69851290     0.13000
C339        C  0.21259728  0.27480714  0.21494920    -0.13200
C340        C  0.24570395  0.27600149  0.18893067     0.09000
C341        C  0.28007405  0.27818663  0.21897729    -0.13200
C342        C  0.28137742  0.27903811  0.27451554    -0.13200
C343        C  0.24832144  0.27686508  0.30050503     0.09000
C344        C  0.21392613  0.27484060  0.27054282    -0.13200
H345        H  0.18589095  0.27357232  0.19218098     0.13000
H346        H  0.30580476  0.27952926  0.19928383     0.13000
H347        H  0.30806322  0.28097269  0.29729232     0.13000
H348        H  0.18821993  0.27346222  0.29029788     0.13000
C349        C  0.03079556  0.30638037  0.78873516    -0.13200
C350        C  0.50676748  0.27559782  0.81447571     0.09000
C351        C  0.48137741  0.24625210  0.78383901    -0.13200
C352        C  0.47977199  0.24792165  0.72835441    -0.13200
C353        C  0.50337865  0.27913937  0.70263364     0.09000
C354        C  0.02904133  0.30823142  0.73309782    -0.13200
H355        H  0.05069546  0.32907506  0.81179011     0.13000
H356        H  0.46258160  0.22238822  0.80299028     0.13000
H357        H  0.46006940  0.22491651  0.70532650     0.13000
H358        H  0.04782890  0.33195808  0.71375683     0.13000
C359        C  0.01898619  0.23604935  0.23225272    -0.13200
C360        C  0.49550197  0.26739778  0.20234385     0.09000
C361        C  0.47110257  0.29662774  0.22874319    -0.13200
C362        C  0.47090158  0.29550163  0.28421964    -0.13200
C363        C  0.49507472  0.26511724  0.31426051     0.09000
C364        C  0.01876837  0.23489545  0.28779696    -0.13200
H365        H  0.03792804  0.21312291  0.21257955     0.13000
H366        H  0.45250255  0.32065241  0.20635310     0.13000
H367        H  0.45225566  0.31884060  0.30390817     0.13000
H368        H  0.03764635  0.21126080  0.31026294     0.13000
C369        C  0.28579596  0.52568836  0.50677520    -0.13200
C370        C  0.25222800  0.55097013  0.50318732     0.09000
C371        C  0.21828825  0.52553686  0.49946339    -0.13200
C372        C  0.21789127  0.47531553  0.49894092    -0.13200
C373        C  0.25141899  0.45002285  0.50164635     0.09000
C374        C  0.28539892  0.47541643  0.50574797    -0.13200
H375        H  0.31217811  0.54494627  0.50942817     0.13000
H376        H  0.19220234  0.54464926  0.49644766     0.13000
H377        H  0.19149814  0.45608487  0.49566930     0.13000
H378        H  0.31146963  0.45627020  0.50777906     0.13000
C379        C  0.27527080  0.52537645  0.96481561    -0.13200
C380        C  0.24801408  0.55068283  0.99017546     0.09000
C381        C  0.22070051  0.52515139  0.01573166    -0.13200
C382        C  0.22071933  0.47494653  0.01611717    -0.13200
C383        C  0.24826809  0.44960523  0.99137438     0.09000
C384        C  0.27541738  0.47514784  0.96545554    -0.13200
H385        H  0.29661151  0.54459289  0.94510156     0.13000
H386        H  0.19945787  0.54418742  0.03541736     0.13000
H387        H  0.19943704  0.45576999  0.03599976     0.13000
H388        H  0.29685573  0.45612619  0.94617492     0.13000
C389        C  0.28190452  0.70612116  0.77627653    -0.13200
C390        C  0.25543775  0.73250921  0.80202902     0.09000
C391        C  0.23036710  0.76153083  0.77174204    -0.13200
C392        C  0.23104870  0.76307404  0.71629284    -0.13200
C393        C  0.25688017  0.73568434  0.69040145     0.09000
C394        C  0.28266892  0.70778516  0.72087912    -0.13200
H395        H  0.30169346  0.68394412  0.79908563     0.13000
H396        H  0.20986988  0.78227363  0.79104891     0.13000
H397        H  0.21087827  0.78466818  0.69342938     0.13000
H398        H  0.30286935  0.68656325  0.70154808     0.13000
C399        C  0.27197303  0.75192038  0.22043035    -0.13200
C400        C  0.24613475  0.72359552  0.18936558     0.09000
C401        C  0.22099075  0.69399419  0.21446757    -0.13200
C402        C  0.22165013  0.69284889  0.27002685    -0.13200
C403        C  0.24759523  0.72111434  0.30105276     0.09000
C404        C  0.27269234  0.75068828  0.27587951    -0.13200
H405        H  0.29162953  0.77481308  0.20164180     0.13000
H406        H  0.20082538  0.67202325  0.19097067     0.13000
H407        H  0.20184419  0.67024071  0.28887560     0.13000
H408        H  0.29277835  0.77285221  0.29929797     0.13000
C409        C  0.46412705  0.52462416  0.49889392    -0.13200
C410        C  0.49805706  0.55003235  0.50080502     0.09000
C411        C  0.03156386  0.52471398  0.50205529    -0.13200
C412        C  0.03116056  0.47446519  0.50268244    -0.13200
C413        C  0.49722171  0.44900550  0.50124165     0.09000
C414        C  0.46370313  0.47436779  0.49881820    -0.13200
H415        H  0.43808055  0.54377379  0.49790352     0.13000
H416        H  0.05793992  0.54393913  0.50349067     0.13000
H417        H  0.05725155  0.45536333  0.50461265     0.13000
H418        H  0.43731907  0.45518199  0.49768600     0.13000
C419        C  0.03082861  0.52532728  0.98992742    -0.13200
C420        C  0.50289290  0.55025271  0.01431108     0.09000
C421        C  0.47555270  0.52425110  0.03931883    -0.13200
C422        C  0.47587165  0.47400690  0.03936471    -0.13200
C423        C  0.50350475  0.44910937  0.01432088     0.09000
C424        C  0.03104675  0.47509487  0.98977174    -0.13200
H425        H  0.05219828  0.54485219  0.97059855     0.13000
H426        H  0.45375179  0.54292574  0.05818238     0.13000
H427        H  0.45434516  0.45445837  0.05833246     0.13000
H428        H  0.05259786  0.45640075  0.97037817     0.13000
C429        C  0.46803055  0.72453650  0.78484612    -0.13200
C430        C  0.50205717  0.72235349  0.81549024     0.09000
C431        C  0.03532710  0.71843074  0.79027185    -0.13200
C432        C  0.03461499  0.71807640  0.73471196    -0.13200
C433        C  0.50056222  0.72067573  0.70400168     0.09000
C434        C  0.46724913  0.72314366  0.72936995    -0.13200
H435        H  0.44215942  0.72716755  0.80399013     0.13000
H436        H  0.06171493  0.71621165  0.81363869     0.13000
H437        H  0.06051905  0.71597032  0.71557288     0.13000
H438        H  0.44079069  0.72495715  0.70610431     0.13000
C439        C  0.46445284  0.73257428  0.22950392    -0.13200
C440        C  0.49757612  0.73372529  0.20351347     0.09000
C441        C  0.03189541  0.73549858  0.23385682    -0.13200
C442        C  0.03307966  0.73527261  0.28952853    -0.13200
C443        C  0.49991870  0.73428408  0.31552790     0.09000
C444        C  0.46562048  0.73319934  0.28515583    -0.13200
H445        H  0.43779241  0.73087633  0.20664624     0.13000
H446        H  0.05769567  0.73610351  0.21431026     0.13000
H447        H  0.05976097  0.73545313  0.31236933     0.13000
H448        H  0.43981798  0.73187568  0.30467323     0.13000
C449        C  0.36329891  0.00414415  0.48088709    -0.16200
C450        C  0.38708734  0.00107038  0.52421926    -0.31400
H451        H  0.37402084  0.00664817  0.44174623     0.12800
H452        H  0.37633479  0.99859189  0.56334265     0.13400
C453        C  0.13479112  0.99646292  0.48171165    -0.16200
C454        C  0.11566222  0.00046624  0.52512448    -0.31400
H455        H  0.11995444  0.99283442  0.44268723     0.12800
H456        H  0.13048157  0.00413937  0.56415833     0.13400
C457        C  0.38803639  0.00006813  0.02442627    -0.16200
C458        C  0.36237418  0.00031721  0.98275533    -0.31400
H459        H  0.37946528  0.99979573  0.06491755     0.12800
H460        H  0.37103086  0.00055013  0.94230990     0.13400
C461        C  0.13784910  0.00010251  0.02022846    -0.16200
C462        C  0.11162054  0.99919890  0.97944314    -0.31400
H463        H  0.12979402  0.00114526  0.06097569     0.12800
H464        H  0.11958266  0.99816796  0.93864409     0.13400
O465        O  0.54788774  0.99894542  0.94801115    -0.72800
O466        O  0.93916667  0.99978513  0.96982776    -0.73700
O467        O  0.99380827  0.07192381  0.95942330    -0.62400
O468        O  0.49207222  0.92692011  0.96037872    -0.70800
O469        O  0.50640358  0.92856133  0.04733713    -0.70300
O470        O  0.00737792  0.07245166  0.04660721    -0.61600
O471        O  0.95169329  0.00039714  0.05747558    -0.74100
O472        O  0.56100823  0.00042725  0.03553876    -0.72900
Cu473      Cu  0.99287151  0.99936887  0.95633006     1.04600
Cu474      Cu  0.50705133  0.00050888  0.04975676     1.04300
C475        C  0.57164000  0.99954692  0.98821791     0.93400
C476        C  0.92819140  0.00009124  0.01686154     0.92600
C477        C  0.50062214  0.09521969  0.00313568     0.84700
C478        C  0.99884106  0.90469279  0.00433239     0.91000
O479        O  0.50142781  0.07402504  0.56277797    -0.72800
O480        O  0.50566265  0.92816122  0.56315357    -0.73700
O481        O  0.55880493  0.00391186  0.56568103    -0.62400
O482        O  0.94816404  0.99835733  0.56502611    -0.70800
O483        O  0.94286178  0.00244414  0.47683526    -0.70300
O484        O  0.55527362  0.99716973  0.47758054    -0.61600
O485        O  0.49619624  0.92819236  0.47551366    -0.74100
O486        O  0.50206831  0.07103713  0.47520724    -0.72900
Cu487      Cu  0.50365245  0.00111995  0.56731149     1.04600
Cu488      Cu  0.49895235  0.99969345  0.47325212     1.04300
C489        C  0.50153137  0.09564798  0.51794786     0.93400
C490        C  0.50111176  0.90500341  0.51887845     0.92600
C491        C  0.57464133  0.00046528  0.52227274     0.84700
C492        C  0.92792394  0.00062776  0.52146912     0.91000
O493        O  0.79916722  0.99957840  0.94836805    -0.72800
O494        O  0.68917859  0.99900770  0.96531320    -0.73700
O495        O  0.74373762  0.07108338  0.95589907    -0.62400
O496        O  0.74330123  0.92734244  0.95714784    -0.70800
O497        O  0.75585445  0.92808395  0.04450105    -0.70300
O498        O  0.75664849  0.07297953  0.04313326    -0.61600
O499        O  0.70109809  0.00047441  0.05308950    -0.74100
O500        O  0.81053499  0.00066796  0.03623162    -0.72900
Cu501      Cu  0.74354441  0.99919853  0.95363747     1.04600
Cu502      Cu  0.75635039  0.00058479  0.04732511     1.04300
C503        C  0.82214702  0.00017958  0.98957842     0.93400
C504        C  0.67789445  0.99981500  0.01224228     0.92600
C505        C  0.75021759  0.09507681  0.99904898     0.84700
C506        C  0.74949630  0.90467929  0.00079894     0.91000
O507        O  0.69154654  0.99524513  0.44072107    -0.72800
O508        O  0.80204304  0.00512653  0.44033841    -0.73700
O509        O  0.75050634  0.92752903  0.44265234    -0.62400
O510        O  0.74300210  0.07283012  0.44292501    -0.70800
O511        O  0.75273697  0.07232766  0.53056335    -0.70300
O512        O  0.75004144  0.92959661  0.53017662    -0.61600
O513        O  0.80768449  0.00061412  0.52849103    -0.74100
O514        O  0.69526214  0.00124597  0.52888580    -0.72900
Cu515      Cu  0.74662531  0.00018810  0.43851735     1.04600
Cu516      Cu  0.75161637  0.00096316  0.53257487     1.04300
C517        C  0.67580695  0.99763295  0.48430143     0.93400
C518        C  0.82245177  0.00336980  0.48378705     0.92600
C519        C  0.75073593  0.90539436  0.48717599     0.84700
C520        C  0.74720909  0.09565528  0.48741340     0.91000
N521        N  0.99846962  0.77786584  0.95023294    -0.36400
N522        N  0.99772098  0.78133255  0.06486382    -0.57000
N523        N  0.99762649  0.67648946  0.06770971    -0.36400
N524        N  0.00176772  0.67318446  0.95354542    -0.57000
C525        C  0.00754554  0.82457878  0.96034661     0.27200
C526        C  0.00939963  0.76711474  0.90134190     0.27200
C527        C  0.00461843  0.68722177  0.12000248     0.27200
C528        C  0.00646711  0.62981730  0.06089350     0.27200
C529        C  0.98888865  0.82737474  0.05301753     0.35800
C530        C  0.98848845  0.77375785  0.11527466     0.35800
C531        C  0.99608759  0.67946003  0.90045046     0.35800
C532        C  0.99623042  0.62587515  0.96228013     0.35800
C533        C  0.02501962  0.84334326  0.91751802    -0.21700
C534        C  0.02562477  0.80727915  0.87997956    -0.21700
C535        C  0.01762190  0.64664323  0.14686962    -0.21700
C536        C  0.01890562  0.61048881  0.10952582    -0.21700
C537        C  0.97329230  0.84875993  0.09599112    -0.22800
C538        C  0.97364901  0.81506944  0.13564800    -0.22800
C539        C  0.98721653  0.63595869  0.87523229    -0.22800
C540        C  0.98720415  0.60197992  0.91447293    -0.22800
C541        C  0.99800974  0.85093050  0.00572925    -0.18100
C542        C  0.00243938  0.72302727  0.87421587    -0.18100
C543        C  0.00163239  0.60360090  0.01247083    -0.18100
C544        C  0.99654151  0.73145975  0.14446074    -0.18100
H545        H  0.03626743  0.87920477  0.91328716     0.14800
H546        H  0.03681196  0.81036176  0.84139713     0.14800
H547        H  0.02482858  0.64302266  0.18912399     0.14800
H548        H  0.02761581  0.57396195  0.11743698     0.14800
H549        H  0.96278644  0.88484816  0.09901893     0.13100
H550        H  0.96415225  0.82054897  0.17499350     0.13100
H551        H  0.98207046  0.62919600  0.83292669     0.13100
H552        H  0.98164331  0.56395752  0.90835893     0.13100
H553        H  0.98169173  0.75627551  0.97236888     0.26300
H554        H  0.98359546  0.69818385  0.03955512     0.26300
N555        N  0.99973574  0.78133952  0.45559417    -0.36400
N556        N  0.00170568  0.77783864  0.57033812    -0.57000
N557        N  0.99883090  0.67275041  0.56410530    -0.36400
N558        N  0.99909683  0.67650824  0.44973577    -0.57000
C559        C  0.01010507  0.82705698  0.46938394     0.27200
C560        C  0.00950753  0.77339076  0.40534220     0.27200
C561        C  0.00650129  0.67955866  0.61700180     0.27200
C562        C  0.00530992  0.62602395  0.55326941     0.27200
C563        C  0.99305594  0.82461054  0.56268326     0.35800
C564        C  0.99273865  0.76688772  0.62005385     0.35800
C565        C  0.99351268  0.68632172  0.39733430     0.35800
C566        C  0.99282815  0.62883109  0.45487302     0.35800
C567        C  0.02744541  0.84785551  0.42752729    -0.21700
C568        C  0.02646384  0.81436052  0.38695530    -0.21700
C569        C  0.01761377  0.63646687  0.64025029    -0.21700
C570        C  0.01682631  0.60268579  0.60004251    -0.21700
C571        C  0.97800475  0.84309254  0.60757847    -0.22800
C572        C  0.97855739  0.80689029  0.64420622    -0.22800
C573        C  0.98402828  0.64450376  0.36891590    -0.22800
C574        C  0.98360498  0.60807666  0.40541285    -0.22800
C575        C  0.00140757  0.85101872  0.51708334    -0.18100
C576        C  0.00081789  0.73141178  0.37452018    -0.18100
C577        C  0.99848886  0.60330201  0.50301339    -0.18100
C578        C  0.99991748  0.72236642  0.64518251    -0.18100
H579        H  0.03965039  0.88345124  0.42583214     0.14800
H580        H  0.03705452  0.81981850  0.34831681     0.14800
H581        H  0.02451767  0.62954521  0.68202939     0.14800
H582        H  0.02324057  0.56500704  0.60503480     0.14800
H583        H  0.96736239  0.87865837  0.61390405     0.13100
H584        H  0.96932433  0.80998780  0.68396931     0.13100
H585        H  0.97908522  0.64026013  0.32621731     0.13100
H586        H  0.97806266  0.57047400  0.39637095     0.13100
H587        H  0.98268028  0.75902522  0.47647069     0.26300
H588        H  0.98555394  0.69713748  0.53832257     0.26300
N589        N  0.74957702  0.78064749  0.94028261    -0.36400
N590        N  0.74825314  0.77863583  0.05464172    -0.57000
N591        N  0.74605977  0.67391108  0.05052785    -0.36400
N592        N  0.75128693  0.67608280  0.93661441    -0.57000
C593        C  0.75948150  0.82648197  0.95380160     0.27200
C594        C  0.76128076  0.77213952  0.89127340     0.27200
C595        C  0.75410370  0.68207284  0.10310149     0.27200
C596        C  0.75509450  0.62786660  0.04057912     0.27200
C597        C  0.73989736  0.82530875  0.04583917     0.35800
C598        C  0.73849224  0.76850998  0.10416759     0.35800
C599        C  0.74544748  0.68545137  0.88411884     0.35800
C600        C  0.74306691  0.62901279  0.94255631     0.35800
C601        C  0.77835227  0.84682606  0.91313544    -0.21700
C602        C  0.77913123  0.81267032  0.87351514    -0.21700
C603        C  0.76861967  0.64082163  0.12687323    -0.21700
C604        C  0.76914963  0.60648791  0.08733643    -0.21700
C605        C  0.72410359  0.84457592  0.08981517    -0.22800
C606        C  0.72359665  0.80867496  0.12694828    -0.22800
C607        C  0.73339071  0.64419758  0.85653412    -0.22800
C608        C  0.73186573  0.60834760  0.89366909    -0.22800
C609        C  0.74939657  0.85092442  0.00021498    -0.18100
C610        C  0.75380328  0.72990156  0.86076639    -0.18100
C611        C  0.74844871  0.60401586  0.99105235    -0.18100
C612        C  0.74584140  0.72463466  0.13046163    -0.18100
H613        H  0.79046188  0.88251267  0.91180005     0.14800
H614        H  0.79138875  0.81717714  0.83584183     0.14800
H615        H  0.77736428  0.63573413  0.16849947     0.14800
H616        H  0.77843477  0.56983439  0.09252194     0.14800
H617        H  0.71390763  0.88055757  0.09509008     0.13100
H618        H  0.71353647  0.81180028  0.16628502     0.13100
H619        H  0.72685132  0.64019986  0.81407157     0.13100
H620        H  0.72391568  0.57123820  0.88553937     0.13100
H621        H  0.73184717  0.75849178  0.96030697     0.26300
H622        H  0.73107603  0.69654983  0.02438253     0.26300
N623        N  0.75188200  0.77760211  0.43591281    -0.36400
N624        N  0.75041665  0.67269852  0.44042963    -0.57000
N625        N  0.75451716  0.67795540  0.55515881    -0.36400
N626        N  0.75170061  0.78294901  0.55060840    -0.57000
C627        C  0.74017258  0.76514015  0.38542221     0.27200
C628        C  0.74156078  0.82367744  0.44344607     0.27200
C629        C  0.74669986  0.63062687  0.54750749     0.27200
C630        C  0.74744791  0.68889761  0.60576601     0.27200
C631        C  0.75543959  0.67857893  0.38823350     0.35800
C632        C  0.75742585  0.62605262  0.45135475     0.35800
C633        C  0.76150015  0.82870496  0.53928200     0.35800
C634        C  0.76209571  0.77610761  0.60275835     0.35800
C635        C  0.72187622  0.80331466  0.36059885    -0.21700
C636        C  0.72229351  0.84007197  0.39734857    -0.21700
C637        C  0.73477851  0.61114127  0.59397600    -0.21700
C638        C  0.73494831  0.64803154  0.63064536    -0.21700
C639        C  0.76557432  0.63549404  0.36579143    -0.22800
C640        C  0.76653490  0.60207037  0.40574140    -0.22800
C641        C  0.77893681  0.85039759  0.58455755    -0.22800
C642        C  0.77865658  0.81737365  0.62481361    -0.22800
C643        C  0.74794717  0.72143701  0.36000680    -0.18100
C644        C  0.75171474  0.85148824  0.48977938    -0.18100
C645        C  0.75537498  0.73366471  0.63121282    -0.18100
C646        C  0.75258555  0.60417094  0.50083822    -0.18100
H647        H  0.70938625  0.80446569  0.32018082     0.14800
H648        H  0.70938856  0.87455617  0.39040230     0.14800
H649        H  0.72719099  0.57410843  0.60105375     0.14800
H650        H  0.72749516  0.64481507  0.67135971     0.14800
H651        H  0.77099548  0.62857416  0.32474433     0.13100
H652        H  0.77271062  0.56433022  0.40143341     0.13100
H653        H  0.79127988  0.88592781  0.58873648     0.13100
H654        H  0.78997014  0.82280560  0.66547030     0.13100
H655        H  0.76983544  0.75779055  0.46143301     0.26300
H656        H  0.76820166  0.70015752  0.52964643     0.26300
N657        N  0.00026442  0.21925041  0.06363957    -0.36400
N658        N  0.00251162  0.22108125  0.94909246    -0.57000
N659        N  0.00615699  0.32582605  0.95345058    -0.36400
N660        N  0.99924049  0.32372446  0.06746852    -0.57000
C661        C  0.99031759  0.17344516  0.05008578     0.27200
C662        C  0.98883370  0.22772867  0.11281443     0.27200
C663        C  0.99913739  0.31790205  0.90061283     0.27200
C664        C  0.99748752  0.37206162  0.96317729     0.27200
C665        C  0.01077560  0.17445853  0.95847221     0.35800
C666        C  0.01357718  0.23109443  0.90019428     0.35800
C667        C  0.00543371  0.31419162  0.11991230     0.35800
C668        C  0.00812473  0.37059929  0.06147184     0.35800
C669        C  0.97157623  0.15306242  0.09085413    -0.21700
C670        C  0.97095888  0.18720022  0.13058744    -0.21700
C671        C  0.98574883  0.35957748  0.87644592    -0.21700
C672        C  0.98483022  0.39384699  0.91597055    -0.21700
C673        C  0.02770239  0.15509619  0.91553706    -0.22800
C674        C  0.02910610  0.19089518  0.87840938    -0.22800
C675        C  0.01840312  0.35514706  0.14732292    -0.22800
C676        C  0.01998316  0.39099482  0.11022951    -0.22800
C677        C  0.00064555  0.14895769  0.00382259    -0.18900
C678        C  0.99679396  0.26985628  0.14342934    -0.18100
C679        C  0.00323580  0.39571957  0.01299158    -0.18100
C680        C  0.00709728  0.27500819  0.87352649    -0.18100
H681        H  0.95966944  0.11726554  0.09228703     0.14800
H682        H  0.95894898  0.18259886  0.16842829     0.14800
H683        H  0.97788952  0.36499777  0.83460765     0.14800
H684        H  0.97616480  0.43071977  0.91047842     0.14800
H685        H  0.03818976  0.11914104  0.91112186     0.13100
H686        H  0.04033499  0.18777224  0.83983174     0.13100
H687        H  0.02565793  0.35894424  0.18963774     0.13100
H688        H  0.02870327  0.42785984  0.11822676     0.13100
H689        H  0.01804628  0.24131991  0.04359205     0.26300
H690        H  0.02012391  0.30272246  0.98018056     0.26300
N691        N  0.99964357  0.22309029  0.56798653    -0.36400
N692        N  0.00013504  0.21757853  0.45377015    -0.57000
N693        N  0.99656695  0.32206598  0.44949485    -0.36400
N694        N  0.99817837  0.32735762  0.56349035    -0.57000
C695        C  0.01137702  0.17773049  0.56017430     0.27200
C696        C  0.01200879  0.23627546  0.61794690     0.27200
C697        C  0.00542710  0.31090654  0.39971461     0.27200
C698        C  0.00513330  0.36909436  0.45801380     0.27200
C699        C  0.99035077  0.17191360  0.46525219     0.35800
C700        C  0.98936095  0.22446856  0.40182302     0.35800
C701        C  0.99220464  0.32086114  0.61523006     0.35800
C702        C  0.98956926  0.37339157  0.55201451     0.35800
C703        C  0.03234080  0.16251188  0.60529411    -0.21700
C704        C  0.03246300  0.19942281  0.64194826    -0.21700
C705        C  0.02016871  0.35115407  0.37633191    -0.21700
C706        C  0.01974836  0.38802573  0.41303024    -0.21700
C707        C  0.97244744  0.15023490  0.42032683    -0.22800
C708        C  0.97236177  0.18334633  0.38003736    -0.22800
C709        C  0.97928177  0.36283823  0.63690116    -0.22800
C710        C  0.97780880  0.39633926  0.59680443    -0.22800
C711        C  0.00073405  0.14940927  0.51459892    -0.18100
C712        C  0.00230009  0.27897190  0.64369856    -0.18100
C713        C  0.99680507  0.39574395  0.50358522    -0.18100
C714        C  0.99672859  0.26671086  0.37350121    -0.18100
H715        H  0.04620100  0.12853076  0.61153952     0.14800
H716        H  0.04581180  0.19907646  0.68190028     0.14800
H717        H  0.02930666  0.35402410  0.33645056     0.14800
H718        H  0.02843026  0.42475060  0.40662853     0.14800
H719        H  0.96021676  0.11462122  0.41641891     0.13100
H720        H  0.96077571  0.17796278  0.33950822     0.13100
H721        H  0.97284597  0.36912945  0.67767272     0.13100
H722        H  0.97014144  0.43360471  0.60078825     0.13100
H723        H  0.98027243  0.24157338  0.54324885     0.26300
H724        H  0.98097311  0.30046451  0.47334739     0.26300
N725        N  0.74840546  0.22176548  0.05328713    -0.36400
N726        N  0.75005312  0.21866864  0.93882184    -0.57000
N727        N  0.75189788  0.32362205  0.93713676    -0.36400
N728        N  0.74684359  0.32640341  0.05123055    -0.57000
C729        C  0.73997189  0.17488610  0.04301557     0.27200
C730        C  0.73763372  0.23206989  0.10240754     0.27200
C731        C  0.74449109  0.31333800  0.88481488     0.27200
C732        C  0.74362222  0.37040635  0.94436144     0.27200
C733        C  0.75910879  0.17267501  0.95049113     0.35800
C734        C  0.75967294  0.22662280  0.88867755     0.35800
C735        C  0.75181833  0.31967390  0.10433539     0.35800
C736        C  0.75352490  0.37354601  0.04296567     0.35800
C737        C  0.72291009  0.15555908  0.08590743    -0.21700
C738        C  0.72203382  0.19138718  0.12365878    -0.21700
C739        C  0.73181997  0.35427281  0.85837150    -0.21700
C740        C  0.73116197  0.39023429  0.89599740    -0.21700
C741        C  0.77516372  0.15173438  0.90761382    -0.22800
C742        C  0.77484062  0.18561382  0.86819376    -0.22800
C743        C  0.76124935  0.36284024  0.13000749    -0.22800
C744        C  0.76255279  0.39693873  0.09105549    -0.22800
C745        C  0.75010499  0.14884644  0.99767621    -0.18100
C746        C  0.74478987  0.27595500  0.13006583    -0.18100
C747        C  0.74887203  0.39623594  0.99294072    -0.18100
C748        C  0.75192980  0.26915029  0.85990776    -0.18100
H749        H  0.71227169  0.11940380  0.09021693     0.14800
H750        H  0.71132663  0.18756603  0.16245885     0.14800
H751        H  0.72441054  0.35822919  0.81620985     0.14800
H752        H  0.72277069  0.42694086  0.88845546     0.14800
H753        H  0.78614979  0.11590973  0.90453064     0.13100
H754        H  0.78480629  0.18057210  0.82906100     0.13100
H755        H  0.76602285  0.36938306  0.17239343     0.13100
H756        H  0.76887466  0.43474095  0.09754360     0.13100
H757        H  0.76500553  0.24362595  0.03125783     0.26300
H758        H  0.76578774  0.30152985  0.96502972     0.26300
N759        N  0.74584235  0.22237848  0.43491626    -0.36400
N760        N  0.74592209  0.21919237  0.54957398    -0.57000
N761        N  0.74699973  0.32394331  0.55343946    -0.36400
N762        N  0.74975737  0.32714301  0.43912418    -0.57000
C763        C  0.75542199  0.17617161  0.44465475     0.27200
C764        C  0.75674543  0.23339167  0.38616779     0.27200
C765        C  0.75346489  0.31381264  0.60576978     0.27200
C766        C  0.75564390  0.37094950  0.54714293     0.27200
C767        C  0.73703697  0.17282381  0.53735781     0.35800
C768        C  0.73729044  0.22665271  0.60034696     0.35800
C769        C  0.74402296  0.32069551  0.38595762     0.35800
C770        C  0.74520195  0.37448788  0.44847274     0.35800
C771        C  0.77335783  0.15817672  0.40188309    -0.21700
C772        C  0.77351658  0.19397524  0.36461910    -0.21700
C773        C  0.76583823  0.35510900  0.63314692    -0.21700
C774        C  0.76719536  0.39111936  0.59616760    -0.21700
C775        C  0.72193768  0.15112328  0.58057957    -0.22800
C776        C  0.72281353  0.18490122  0.62066755    -0.22800
C777        C  0.73632812  0.36419315  0.36122867    -0.22800
C778        C  0.73721087  0.39837026  0.40088792    -0.22800
C779        C  0.74595606  0.14943836  0.48956850    -0.18100
C780        C  0.74944990  0.27695658  0.35929790    -0.18100
C781        C  0.75072765  0.39679260  0.49900648    -0.18100
C782        C  0.74543824  0.26938945  0.62980433    -0.18100
H783        H  0.78536543  0.12307673  0.39748696     0.14800
H784        H  0.78493986  0.19120637  0.32618086     0.14800
H785        H  0.77237408  0.35938674  0.67555807     0.14800
H786        H  0.77515404  0.42814762  0.60471191     0.14800
H787        H  0.71130465  0.11483374  0.58360916     0.13100
H788        H  0.71380841  0.17917626  0.66021963     0.13100
H789        H  0.73158823  0.37084333  0.31897178     0.13100
H790        H  0.73304056  0.43650535  0.39518574     0.13100
H791        H  0.72874391  0.24331563  0.45718529     0.26300
H792        H  0.73335308  0.30162277  0.52501481     0.26300
C793        C  0.78324292  0.26844505  0.77424102    -0.13200
C794        C  0.75039524  0.26719686  0.80086419     0.09000
C795        C  0.71583546  0.26570065  0.77118752    -0.13200
C796        C  0.71411902  0.26623779  0.71551539    -0.13200
C797        C  0.74697432  0.26737849  0.68886790     0.09000
C798        C  0.78153907  0.26808580  0.71857026    -0.13200
H799        H  0.81009251  0.26990125  0.79661351     0.13000
H800        H  0.69025301  0.26497070  0.79126348     0.13000
H801        H  0.68725160  0.26596114  0.69316540     0.13000
H802        H  0.80712581  0.26919993  0.69851907     0.13000
C803        C  0.71259553  0.27479664  0.21495094    -0.13200
C804        C  0.74570167  0.27599300  0.18893071     0.09000
C805        C  0.78007186  0.27818179  0.21897721    -0.13200
C806        C  0.78137595  0.27903572  0.27451586    -0.13200
C807        C  0.74832062  0.27686188  0.30050709     0.09000
C808        C  0.71392508  0.27483308  0.27054520    -0.13200
H809        H  0.68588892  0.27355910  0.19218357     0.13000
H810        H  0.80580231  0.27952584  0.19928324     0.13000
H811        H  0.80806201  0.28097277  0.29729171     0.13000
H812        H  0.68821918  0.27345340  0.29030089     0.13000
C813        C  0.53078521  0.30639470  0.78873143    -0.13200
C814        C  0.00677592  0.27558776  0.81448132     0.09000
C815        C  0.98138430  0.24624282  0.78384627    -0.13200
C816        C  0.97977878  0.24790949  0.72836104    -0.13200
C817        C  0.00338773  0.27912273  0.70263792     0.09000
C818        C  0.52902966  0.30825056  0.73309474    -0.13200
H819        H  0.55068422  0.32908975  0.81178757     0.13000
H820        H  0.96258688  0.22238252  0.80299942     0.13000
H821        H  0.96007391  0.22490630  0.70533468     0.13000
H822        H  0.54781523  0.33198121  0.71375533     0.13000
C823        C  0.51901127  0.23608444  0.23225769    -0.13200
C824        C  0.99549581  0.26738897  0.20234396     0.09000
C825        C  0.97111898  0.29664681  0.22875058    -0.13200
C826        C  0.97092307  0.29552305  0.28422760    -0.13200
C827        C  0.99507826  0.26511263  0.31426338     0.09000
C828        C  0.51878907  0.23492896  0.28780111    -0.13200
H829        H  0.53797054  0.21318010  0.21258903     0.13000
H830        H  0.95253267  0.32069167  0.20636571     0.13000
H831        H  0.95229454  0.31888338  0.30392046     0.13000
H832        H  0.53768162  0.21131607  0.31027213     0.13000
C833        C  0.78580271  0.52568302  0.50685558    -0.13200
C834        C  0.75223600  0.55096601  0.50319605     0.09000
C835        C  0.71829506  0.52553662  0.49940075    -0.13200
C836        C  0.71789567  0.47531596  0.49887730    -0.13200
C837        C  0.75142278  0.45002069  0.50165293     0.09000
C838        C  0.78540384  0.47541135  0.50582770    -0.13200
H839        H  0.81218578  0.54493938  0.50956513     0.13000
H840        H  0.69221074  0.54465155  0.49633026     0.13000
H841        H  0.69150194  0.45608763  0.49555027     0.13000
H842        H  0.81147421  0.45626301  0.50791529     0.13000
C843        C  0.77526353  0.52536968  0.96480842    -0.13200
C844        C  0.74800262  0.55067589  0.99015963     0.09000
C845        C  0.72068551  0.52514450  0.01570843    -0.13200
C846        C  0.72070614  0.47493978  0.01609868    -0.13200
C847        C  0.74825992  0.44959850  0.99136734     0.09000
C848        C  0.77541165  0.47514087  0.96545260    -0.13200
H849        H  0.79660686  0.54458625  0.94509986     0.13000
H850        H  0.69943959  0.54418072  0.03538701     0.13000
H851        H  0.69942143  0.45576345  0.03597651     0.13000
H852        H  0.79685325  0.45611895  0.94617928     0.13000
C853        C  0.78190178  0.70613129  0.77628677    -0.13200
C854        C  0.75542411  0.73250948  0.80202888     0.09000
C855        C  0.73035041  0.76151979  0.77173314    -0.13200
C856        C  0.73104016  0.76306192  0.71628530    -0.13200
C857        C  0.75688256  0.73568229  0.69040421     0.09000
C858        C  0.78267392  0.70779377  0.72089024    -0.13200
H859        H  0.80169310  0.68396307  0.79910322     0.13000
H860        H  0.70984492  0.78225475  0.79103207     0.13000
H861        H  0.71086716  0.78464659  0.69341449     0.13000
H862        H  0.80288204  0.68657874  0.70156649     0.13000
C863        C  0.77200356  0.75187120  0.22043830    -0.13200
C864        C  0.74614783  0.72357092  0.18937407     0.09000
C865        C  0.72098731  0.69399496  0.21447662    -0.13200
C866        C  0.72164558  0.69285328  0.27003600    -0.13200
C867        C  0.74760527  0.72109787  0.30106081     0.09000
C868        C  0.77272107  0.75064366  0.27588798    -0.13200
H869        H  0.79167311  0.77474344  0.20164879     0.13000
H870        H  0.70080883  0.67204294  0.19098010     0.13000
H871        H  0.70182688  0.67026556  0.28888587     0.13000
H872        H  0.79281944  0.77278954  0.29930673     0.13000
C873        C  0.96413125  0.52462016  0.49892024    -0.13200
C874        C  0.99805982  0.55003030  0.50080340     0.09000
C875        C  0.53156175  0.52471638  0.50207794    -0.13200
C876        C  0.53115703  0.47446823  0.50270058    -0.13200
C877        C  0.99722694  0.44899975  0.50124832     0.09000
C878        C  0.96370839  0.47436276  0.49884829    -0.13200
H879        H  0.93808496  0.54376894  0.49794891     0.13000
H880        H  0.55793851  0.54394118  0.50353242     0.13000
H881        H  0.55724755  0.45536480  0.50464707     0.13000
H882        H  0.93732506  0.45517680  0.49773642     0.13000
C883        C  0.53083937  0.52533731  0.98992702    -0.13200
C884        C  0.00288557  0.55024671  0.01431465     0.09000
C885        C  0.97554346  0.52424824  0.03932202    -0.13200
C886        C  0.97585749  0.47400335  0.03936530    -0.13200
C887        C  0.00348719  0.44910178  0.01431830     0.09000
C888        C  0.53106237  0.47510545  0.98977385    -0.13200
H889        H  0.55220768  0.54486496  0.97059829     0.13000
H890        H  0.95374477  0.54292588  0.05818718     0.13000
H891        H  0.95432988  0.45445761  0.05833368     0.13000
H892        H  0.55261526  0.45641404  0.97038124     0.13000
C893        C  0.96803332  0.72451316  0.78484334    -0.13200
C894        C  0.00205892  0.72234094  0.81549171     0.09000
C895        C  0.53532244  0.71842769  0.79026635    -0.13200
C896        C  0.53460665  0.71806965  0.73470608    -0.13200
C897        C  0.00057149  0.72067040  0.70400402     0.09000
C898        C  0.96725585  0.72312453  0.72936743    -0.13200
H899        H  0.94216012  0.72713371  0.80398379     0.13000
H900        H  0.56171085  0.71619855  0.81363013     0.13000
H901        H  0.56050880  0.71595130  0.71556381     0.13000
H902        H  0.94079841  0.72493048  0.70609819     0.13000
C903        C  0.96446946  0.73258724  0.22951365    -0.13200
C904        C  0.99759030  0.73373049  0.20351670     0.09000
C905        C  0.53187924  0.73549442  0.23385743    -0.13200
C906        C  0.53305928  0.73526418  0.28952793    -0.13200
C907        C  0.99994138  0.73429681  0.31553461     0.09000
C908        C  0.96564137  0.73321659  0.28516637    -0.13200
H909        H  0.93780730  0.73089057  0.20666041     0.13000
H910        H  0.55768103  0.73610427  0.21431469     0.13000
H911        H  0.55973906  0.73544745  0.31237277     0.13000
H912        H  0.93984035  0.73189721  0.30468765     0.13000
C913        C  0.86329615  0.00412296  0.48089729    -0.16200
C914        C  0.88708405  0.00105215  0.52422973    -0.31400
H915        H  0.87401845  0.00662489  0.44175653     0.12800
H916        H  0.87633175  0.99857539  0.56335349     0.13400
C917        C  0.63479066  0.99647120  0.48169905    -0.16200
C918        C  0.61566424  0.00045556  0.52511617    -0.31400
H919        H  0.61995295  0.99286059  0.44267343     0.12800
H920        H  0.63048504  0.00411160  0.56415077     0.13400
C921        C  0.88803768  0.00004978  0.02443086    -0.16200
C922        C  0.86237304  0.00030271  0.98276346    -0.31400
H923        H  0.87946851  0.99977565  0.06492315     0.12800
H924        H  0.87102798  0.00053737  0.94231714     0.13400
C925        C  0.63784417  0.00009799  0.02021965    -0.16200
C926        C  0.61161608  0.99918663  0.97943371    -0.31400
H927        H  0.62978831  0.00114985  0.06096620     0.12800
H928        H  0.61957827  0.99814598  0.93863487     0.13400
loop_ 
_geom_bond_atom_site_label_1 
_geom_bond_atom_site_label_2 
_geom_bond_distance 
_geom_bond_site_symmetry_2 
_ccdc_geom_bond_type 
O1           C11   1.276       .  A
O1         Cu473   2.008   1_455  S
O2           C12   1.275   1_566  A
O2           Cu9   1.989       .  S
O3          C477   1.280   1_556  A
O3           Cu9   2.019   1_545  S
O4          C478   1.280   1_556  A
O4         Cu473   2.019       .  S
O5          C478   1.277   1_455  A
O5          Cu10   2.002   1_565  S
O6          C477   1.277       .  A
O6         Cu474   2.004       .  S
O7           C12   1.279       .  A
O7         Cu474   2.018       .  S
O8           C11   1.278   1_544  A
O8          Cu10   2.002       .  S
Cu9         O465   2.008       .  S
Cu9         O468   2.019       .  S
Cu9        Cu474   2.370   1_566  S
Cu10        O470   2.004       .  S
Cu10        O471   2.018   1_455  S
Cu10       Cu473   2.370   1_444  S
C11         C462   1.473       .  S
C12         C457   1.473       .  S
C13         O467   1.280   1_454  A
C13         O470   1.277       .  A
C13         C677   1.495       .  S
C14         O468   1.280   1_554  A
C14         O469   1.277       .  A
C14          C77   1.496       .  S
O15          C25   1.282       .  A
O15         Cu23   2.034       .  S
O16          C26   1.283       .  A
O16         Cu23   2.034   1_565  S
O17          C27   1.273       .  A
O17         Cu23   1.991       .  S
O18          C28   1.274   1_565  A
O18        Cu487   1.996   1_565  S
O19          C28   1.282       .  A
O19        Cu488   2.031   1_545  S
O20          C27   1.282   1_565  A
O20         Cu24   2.026   1_455  S
O21          C26   1.274   1_655  A
O21         Cu24   1.992       .  S
O22          C25   1.273       .  A
O22         Cu24   1.987   1_445  S
Cu23        O482   1.996   1_445  S
Cu23        Cu24   2.361   1_445  S
Cu24        O483   2.031   1_565  S
C25         C711   1.499       .  S
C26         C575   1.502       .  S
C27         C454   1.474       .  S
C28         C450   1.478       .  S
O29          C39   1.279   1_565  A
O29         Cu37   2.018       .  S
O30          C40   1.277   1_556  A
O30         Cu37   2.002       .  S
O31          C41   1.277       .  A
O31         Cu37   2.000   1_545  S
O32          C42   1.277   1_556  A
O32         Cu37   2.001       .  S
O33          C42   1.279       .  A
O33         Cu38   2.018   1_565  S
O34          C41   1.280   1_554  A
O34         Cu38   2.017       .  S
O35          C40   1.276   1_545  A
O35         Cu38   2.006       .  S
O36          C39   1.275   1_554  A
O36         Cu38   1.992       .  S
Cu37        Cu38   2.370   1_566  S
C39         C458   1.472       .  S
C40         C461   1.471   1_565  S
C41         C281   1.497       .  S
C42         C145   1.495       .  S
O43          C53   1.273       .  A
O43         Cu51   1.992   1_565  S
O44          C54   1.274       .  A
O44         Cu51   1.997       .  S
O45          C55   1.282       .  A
O45         Cu51   2.031   1_565  S
O46          C56   1.282       .  A
O46         Cu51   2.029       .  S
O47          C56   1.273       .  A
O47         Cu52   1.986       .  S
O48          C55   1.273       .  A
O48         Cu52   1.986   1_565  S
O49          C54   1.282       .  A
O49         Cu52   2.030       .  S
O50          C53   1.281   1_545  A
O50         Cu52   2.026       .  S
Cu51        Cu52   2.361       .  S
C53         C453   1.474       .  S
C54         C449   1.478       .  S
C55         C180   1.502       .  S
C56         C315   1.498       .  S
N57          C62   1.352       .  A
N57          C61   1.354       .  A
N57          H89   1.040       .  S
N58          C65   1.353       .  A
N58          C66   1.352       .  A
N59          C64   1.353       .  A
N59          C63   1.353       .  A
N59          H90   1.040       .  S
N60          C67   1.350       .  A
N60          C68   1.351       .  A
C61          C69   1.389       .  A
C61          C77   1.419   1_556  A
C62          C78   1.411       .  A
C62          C70   1.385       .  A
C63          C71   1.388       .  A
C63          C80   1.415       .  A
C64          C79   1.415       .  A
C64          C72   1.386       .  A
C65          C77   1.420       .  A
C65          C73   1.389       .  A
C66          C80   1.413       .  A
C66          C74   1.384       .  A
C67          C75   1.386       .  A
C67          C78   1.408       .  A
C68          C76   1.387       .  A
C68          C79   1.412   1_556  A
C69          C70   1.375       .  A
C69          H81   1.081       .  S
C70          H82   1.082       .  S
C71          C72   1.376       .  A
C71          H83   1.082       .  S
C72          H84   1.082       .  S
C73          C74   1.373       .  A
C73          H85   1.081       .  S
C74          H86   1.082       .  S
C75          C76   1.372       .  A
C75          H87   1.082       .  S
C76          H88   1.082       .  S
C78         C430   1.477       .  S
C79         C420   1.486       .  S
C80         C440   1.485       .  S
N91          C96   1.355       .  A
N91          C95   1.357       .  A
N91         H123   1.040       .  S
N92          C99   1.353       .  A
N92         C100   1.351       .  A
N93          C98   1.353       .  A
N93          C97   1.352       .  A
N93         H124   1.038       .  S
N94         C101   1.350       .  A
N94         C102   1.351       .  A
C95         C103   1.390       .  A
C95         C111   1.426       .  A
C96         C112   1.417       .  A
C96         C104   1.385       .  A
C97         C105   1.388       .  A
C97         C114   1.414       .  A
C98         C113   1.414       .  A
C98         C106   1.387       .  A
C99         C111   1.416       .  A
C99         C107   1.387       .  A
C100        C114   1.412       .  A
C100        C108   1.385       .  A
C101        C109   1.388       .  A
C101        C112   1.413       .  A
C102        C110   1.385       .  A
C102        C113   1.412       .  A
C103        C104   1.376       .  A
C103        H115   1.081       .  S
C104        H116   1.082       .  S
C105        C106   1.375       .  A
C105        H117   1.082       .  S
C106        H118   1.082       .  S
C107        C108   1.369       .  A
C107        H119   1.080       .  S
C108        H120   1.081       .  S
C109        C110   1.373       .  A
C109        H121   1.082       .  S
C110        H122   1.082       .  S
C111        C490   1.502       .  S
C112        C443   1.486       .  S
C113        C410   1.482       .  S
C114        C433   1.480       .  S
N125        C130   1.353       .  A
N125        C129   1.355       .  A
N125        H157   1.041       .  S
N126        C133   1.352       .  A
N126        C134   1.351       .  A
N127        C132   1.352       .  A
N127        C131   1.351       .  A
N127        H158   1.040       .  S
N128        C135   1.350       .  A
N128        C136   1.351       .  A
C129        C137   1.390       .  A
C129        C145   1.420   1_556  A
C130        C146   1.412       .  A
C130        C138   1.384       .  A
C131        C139   1.388       .  A
C131        C148   1.412       .  A
C132        C147   1.412   1_554  A
C132        C140   1.387       .  A
C133        C145   1.417       .  A
C133        C141   1.389       .  A
C134        C148   1.411       .  A
C134        C142   1.384       .  A
C135        C143   1.386       .  A
C135        C146   1.411       .  A
C136        C144   1.386       .  A
C136        C147   1.411       .  A
C137        C138   1.375       .  A
C137        H149   1.082       .  S
C138        H150   1.083       .  S
C139        C140   1.376       .  A
C139        H151   1.082       .  S
C140        H152   1.083       .  S
C141        C142   1.373       .  A
C141        H153   1.081       .  S
C142        H154   1.082       .  S
C143        C144   1.375       .  A
C143        H155   1.082       .  S
C144        H156   1.082       .  S
C146        C390   1.486       .  S
C147        C380   1.484       .  S
C148        C400   1.483       .  S
N159        C164   1.355       .  A
N159        C163   1.351       .  A
N159        H191   1.042       .  S
N160        C167   1.350       .  A
N160        C168   1.351       .  A
N161        C166   1.351       .  A
N161        C165   1.353       .  A
N161        H192   1.040       .  S
N162        C169   1.355       .  A
N162        C170   1.354       .  A
C163        C171   1.385       .  A
C163        C179   1.411       .  A
C164        C180   1.418       .  A
C164        C172   1.390       .  A
C165        C173   1.387       .  A
C165        C182   1.413       .  A
C166        C181   1.413       .  A
C166        C174   1.388       .  A
C167        C179   1.410       .  A
C167        C175   1.386       .  A
C168        C182   1.411       .  A
C168        C176   1.386       .  A
C169        C177   1.391       .  A
C169        C180   1.425       .  A
C170        C178   1.382       .  A
C170        C181   1.413       .  A
C171        C172   1.374       .  A
C171        H183   1.083       .  S
C172        H184   1.081       .  S
C173        C174   1.376       .  A
C173        H185   1.082       .  S
C174        H186   1.082       .  S
C175        C176   1.373       .  A
C175        H187   1.082       .  S
C176        H188   1.082       .  S
C177        C178   1.373       .  A
C177        H189   1.080       .  S
C178        H190   1.082       .  S
C179        C403   1.483       .  S
C181        C393   1.488       .  S
C182        C370   1.482       .  S
N193        C198   1.353       .  A
N193        C197   1.354       .  A
N193        H225   1.041       .  S
N194        C201   1.352       .  A
N194        C202   1.351       .  A
N195        C200   1.352       .  A
N195        C199   1.352       .  A
N195        H226   1.040       .  S
N196        C203   1.351       .  A
N196        C204   1.351       .  A
C197        C205   1.390       .  A
C197        C213   1.421       .  A
C198        C214   1.413       .  A
C198        C206   1.385       .  A
C199        C207   1.388       .  A
C199        C216   1.413       .  A
C200        C215   1.413   1_556  A
C200        C208   1.387       .  A
C201        C213   1.416   1_556  A
C201        C209   1.388       .  A
C202        C216   1.411       .  A
C202        C210   1.384       .  A
C203        C211   1.387       .  A
C203        C214   1.413       .  A
C204        C212   1.385       .  A
C204        C215   1.411       .  A
C205        C206   1.376       .  A
C205        H217   1.082       .  S
C206        H218   1.082       .  S
C207        C208   1.376       .  A
C207        H219   1.082       .  S
C208        H220   1.082       .  S
C209        C210   1.373       .  A
C209        H221   1.081       .  S
C210        H222   1.082       .  S
C211        C212   1.374       .  A
C211        H223   1.082       .  S
C212        H224   1.082       .  S
C213        C477   1.495       .  S
C214        C360   1.489       .  S
C215        C423   1.485       .  S
C216        C350   1.486       .  S
N227        C232   1.350       .  A
N227        C231   1.353       .  A
N227        H259   1.043       .  S
N228        C235   1.353       .  A
N228        C236   1.352       .  A
N229        C234   1.353       .  A
N229        C233   1.351       .  A
N229        H260   1.041       .  S
N230        C237   1.349       .  A
N230        C238   1.349       .  A
C231        C239   1.388       .  A
C231        C247   1.414       .  A
C232        C248   1.409       .  A
C232        C240   1.385       .  A
C233        C241   1.387       .  A
C233        C250   1.413       .  A
C234        C249   1.414       .  A
C234        C242   1.388       .  A
C235        C247   1.422       .  A
C235        C243   1.391       .  A
C236        C250   1.411       .  A
C236        C244   1.382       .  A
C237        C245   1.386       .  A
C237        C248   1.409       .  A
C238        C246   1.388       .  A
C238        C249   1.412       .  A
C239        C240   1.376       .  A
C239        H251   1.081       .  S
C240        H252   1.083       .  S
C241        C242   1.377       .  A
C241        H253   1.082       .  S
C242        H254   1.082       .  S
C243        C244   1.374       .  A
C243        H255   1.081       .  S
C244        H256   1.082       .  S
C245        C246   1.377       .  A
C245        H257   1.082       .  S
C246        H258   1.082       .  S
C247        C489   1.499       .  S
C248        C353   1.481       .  S
C249        C413   1.483       .  S
C250        C363   1.488       .  S
N261        C266   1.353       .  A
N261        C265   1.355       .  A
N261        H293   1.039       .  S
N262        C269   1.353       .  A
N262        C270   1.352       .  A
N263        C268   1.353       .  A
N263        C267   1.353       .  A
N263        H294   1.040       .  S
N264        C271   1.350       .  A
N264        C272   1.351       .  A
C265        C273   1.389       .  A
C265        C281   1.420   1_554  A
C266        C282   1.413       .  A
C266        C274   1.386       .  A
C267        C275   1.388       .  A
C267        C284   1.414       .  A
C268        C283   1.414       .  A
C268        C276   1.386       .  A
C269        C281   1.420       .  A
C269        C277   1.389       .  A
C270        C284   1.411       .  A
C270        C278   1.384       .  A
C271        C279   1.387       .  A
C271        C282   1.411       .  A
C272        C280   1.386       .  A
C272        C283   1.412   1_554  A
C273        C274   1.375       .  A
C273        H285   1.081       .  S
C274        H286   1.082       .  S
C275        C276   1.375       .  A
C275        H287   1.082       .  S
C276        H288   1.082       .  S
C277        C278   1.372       .  A
C277        H289   1.081       .  S
C278        H290   1.082       .  S
C279        C280   1.372       .  A
C279        H291   1.082       .  S
C280        H292   1.082       .  S
C282        C340   1.480       .  S
C283        C383   1.486       .  S
C284        C330   1.484       .  S
N295        C300   1.352       .  A
N295        C299   1.354       .  A
N295        H327   1.043       .  S
N296        C303   1.353       .  A
N296        C304   1.353       .  A
N297        C302   1.354       .  A
N297        C301   1.353       .  A
N297        H328   1.037       .  S
N298        C305   1.350       .  A
N298        C306   1.350       .  A
C299        C307   1.389       .  A
C299        C315   1.418       .  A
C300        C316   1.410       .  A
C300        C308   1.385       .  A
C301        C309   1.388       .  A
C301        C318   1.416       .  A
C302        C317   1.414       .  A
C302        C310   1.386       .  A
C303        C315   1.423       .  A
C303        C311   1.390       .  A
C304        C318   1.414       .  A
C304        C312   1.384       .  A
C305        C313   1.386       .  A
C305        C316   1.408       .  A
C306        C314   1.387       .  A
C306        C317   1.412       .  A
C307        C308   1.373       .  A
C307        H319   1.081       .  S
C308        H320   1.082       .  S
C309        C310   1.375       .  A
C309        H321   1.082       .  S
C310        H322   1.082       .  S
C311        C312   1.373       .  A
C311        H323   1.081       .  S
C312        H324   1.082       .  S
C313        C314   1.373       .  A
C313        H325   1.082       .  S
C314        H326   1.082       .  S
C316        C343   1.477       .  S
C317        C373   1.482       .  S
C318        C333   1.485       .  S
C329        C330   1.402       .  A
C329        C334   1.398       .  A
C329        H335   1.083       .  S
C330        C331   1.404       .  A
C331        C332   1.398       .  A
C331        H336   1.083       .  S
C332        C333   1.403       .  A
C332        H337   1.083       .  S
C333        C334   1.404       .  A
C334        H338   1.083       .  S
C339        C340   1.402       .  A
C339        C344   1.397       .  A
C339        H345   1.083       .  S
C340        C341   1.403       .  A
C341        C342   1.395       .  A
C341        H346   1.083       .  S
C342        C343   1.401       .  A
C342        H347   1.083       .  S
C343        C344   1.403       .  A
C344        H348   1.083       .  S
C349        C354   1.399       .  A
C349        C814   1.405       .  A
C349        H355   1.083       .  S
C350        C351   1.403       .  A
C350        C813   1.405       .  A
C351        C352   1.395       .  A
C351        H356   1.083       .  S
C352        C353   1.403       .  A
C352        H357   1.083       .  S
C353        C818   1.403       .  A
C354        C817   1.403       .  A
C354        H358   1.083       .  S
C359        C364   1.399       .  A
C359        C824   1.405   1_455  A
C359        H365   1.083       .  S
C360        C361   1.404       .  A
C360        C823   1.405       .  A
C361        C362   1.398       .  A
C361        H366   1.083       .  S
C362        C363   1.405       .  A
C362        H367   1.083       .  S
C363        C828   1.404       .  A
C364        C827   1.404   1_455  A
C364        H368   1.083       .  S
C369        C370   1.403       .  A
C369        C374   1.398       .  A
C369        H375   1.083       .  S
C370        C371   1.402       .  A
C371        C372   1.397       .  A
C371        H376   1.083       .  S
C372        C373   1.402       .  A
C372        H377   1.083       .  S
C373        C374   1.403       .  A
C374        H378   1.083       .  S
C379        C380   1.403       .  A
C379        C384   1.398       .  A
C379        H385   1.083       .  S
C380        C381   1.403   1_556  A
C381        C382   1.397       .  A
C381        H386   1.083       .  S
C382        C383   1.404   1_554  A
C382        H387   1.083       .  S
C383        C384   1.404       .  A
C384        H388   1.083       .  S
C389        C390   1.403       .  A
C389        C394   1.398       .  A
C389        H395   1.083       .  S
C390        C391   1.404       .  A
C391        C392   1.399       .  A
C391        H396   1.083       .  S
C392        C393   1.404       .  A
C392        H397   1.083       .  S
C393        C394   1.405       .  A
C394        H398   1.083       .  S
C399        C400   1.402       .  A
C399        C404   1.395       .  A
C399        H405   1.083       .  S
C400        C401   1.404       .  A
C401        C402   1.398       .  A
C401        H406   1.083       .  S
C402        C403   1.403       .  A
C402        H407   1.083       .  S
C403        C404   1.403       .  A
C404        H408   1.083       .  S
C409        C410   1.402       .  A
C409        C414   1.398       .  A
C409        H415   1.083       .  S
C410        C875   1.403       .  A
C411        C412   1.398       .  A
C411        C874   1.403   1_455  A
C411        H416   1.083       .  S
C412        C877   1.404   1_455  A
C412        H417   1.083       .  S
C413        C414   1.403       .  A
C413        C876   1.404       .  A
C414        H418   1.083       .  S
C419        C424   1.398       .  A
C419        C884   1.404   1_556  A
C419        H425   1.083       .  S
C420        C421   1.404       .  A
C420        C883   1.404   1_554  A
C421        C422   1.398       .  A
C421        H426   1.083       .  S
C422        C423   1.404       .  A
C422        H427   1.083       .  S
C423        C888   1.403   1_554  A
C424        C887   1.403   1_556  A
C424        H428   1.083       .  S
C429        C430   1.402       .  A
C429        C434   1.395       .  A
C429        H435   1.083       .  S
C430        C895   1.402       .  A
C431        C432   1.397       .  A
C431        C894   1.402       .  A
C431        H436   1.083       .  S
C432        C897   1.404       .  A
C432        H437   1.083       .  S
C433        C434   1.402       .  A
C433        C896   1.404       .  A
C434        H438   1.083       .  S
C439        C440   1.402       .  A
C439        C444   1.398       .  A
C439        H445   1.083       .  S
C440        C905   1.404       .  A
C441        C442   1.399       .  A
C441        C904   1.404   1_455  A
C441        H446   1.083       .  S
C442        C907   1.403   1_455  A
C442        H447   1.083       .  S
C443        C444   1.404       .  A
C443        C906   1.403       .  A
C444        H448   1.083       .  S
C449        C450   1.341       .  D
C449        H451   1.087       .  S
C450        H452   1.087   1_545  S
C453        C454   1.339   1_565  D
C453        H455   1.087       .  S
C454        H456   1.087       .  S
C457        C458   1.346   1_554  D
C457        H459   1.087   1_545  S
C458        H460   1.087       .  S
C461        C462   1.343   1_544  D
C461        H463   1.087       .  S
C462        H464   1.087       .  S
O465        C475   1.276       .  A
O466        C476   1.276   1_566  A
O466       Cu473   1.989       .  S
O467       Cu473   2.019   1_545  S
O469       Cu474   2.002   1_565  S
O471        C476   1.279       .  A
O472        C475   1.278   1_544  A
O472       Cu474   2.002       .  S
C475        C926   1.473       .  S
C476        C921   1.473       .  S
C478        C541   1.496       .  S
O479        C489   1.282       .  A
O479       Cu487   2.034       .  S
O480        C490   1.283       .  A
O480       Cu487   2.034   1_565  S
O481        C491   1.273       .  A
O481       Cu487   1.991       .  S
O482        C492   1.274   1_565  A
O483        C492   1.282       .  A
O484        C491   1.282   1_565  A
O484       Cu488   2.026       .  S
O485        C490   1.274       .  A
O485       Cu488   1.992       .  S
O486        C489   1.273       .  A
O486       Cu488   1.987   1_545  S
Cu487      Cu488   2.361   1_545  S
C491        C918   1.474       .  S
C492        C914   1.478       .  S
O493        C503   1.279   1_565  A
O493       Cu501   2.018       .  S
O494        C504   1.277   1_556  A
O494       Cu501   2.002       .  S
O495        C505   1.277       .  A
O495       Cu501   2.000   1_545  S
O496        C506   1.277   1_556  A
O496       Cu501   2.001       .  S
O497        C506   1.279       .  A
O497       Cu502   2.018   1_565  S
O498        C505   1.280   1_554  A
O498       Cu502   2.017       .  S
O499        C504   1.276   1_545  A
O499       Cu502   2.006       .  S
O500        C503   1.275   1_554  A
O500       Cu502   1.992       .  S
Cu501      Cu502   2.370   1_566  S
C503        C922   1.472       .  S
C504        C925   1.471   1_565  S
C505        C745   1.497       .  S
C506        C609   1.495       .  S
O507        C517   1.273       .  A
O507       Cu515   1.992   1_565  S
O508        C518   1.274       .  A
O508       Cu515   1.997       .  S
O509        C519   1.282       .  A
O509       Cu515   2.031   1_565  S
O510        C520   1.282       .  A
O510       Cu515   2.029       .  S
O511        C520   1.273       .  A
O511       Cu516   1.986       .  S
O512        C519   1.273       .  A
O512       Cu516   1.986   1_565  S
O513        C518   1.282       .  A
O513       Cu516   2.030       .  S
O514        C517   1.281   1_545  A
O514       Cu516   2.025       .  S
Cu515      Cu516   2.361       .  S
C517        C917   1.474       .  S
C518        C913   1.478       .  S
C519        C644   1.502       .  S
C520        C779   1.498       .  S
N521        C526   1.352   1_655  A
N521        C525   1.354   1_655  A
N521        H553   1.040       .  S
N522        C529   1.353       .  A
N522        C530   1.352       .  A
N523        C528   1.353   1_655  A
N523        C527   1.353   1_655  A
N523        H554   1.040       .  S
N524        C531   1.350   1_455  A
N524        C532   1.351   1_455  A
C525        C533   1.389       .  A
C525        C541   1.419   1_456  A
C526        C542   1.411       .  A
C526        C534   1.385       .  A
C527        C535   1.388       .  A
C527        C544   1.415   1_455  A
C528        C543   1.415       .  A
C528        C536   1.386       .  A
C529        C541   1.420       .  A
C529        C537   1.389       .  A
C530        C544   1.413       .  A
C530        C538   1.384       .  A
C531        C539   1.386       .  A
C531        C542   1.408   1_655  A
C532        C540   1.387       .  A
C532        C543   1.412   1_656  A
C533        C534   1.375       .  A
C533        H545   1.081       .  S
C534        H546   1.082       .  S
C535        C536   1.376       .  A
C535        H547   1.082       .  S
C536        H548   1.082       .  S
C537        C538   1.373       .  A
C537        H549   1.081       .  S
C538        H550   1.082       .  S
C539        C540   1.372       .  A
C539        H551   1.082       .  S
C540        H552   1.082       .  S
C542        C894   1.477       .  S
C543        C884   1.486       .  S
C544        C904   1.485       .  S
N555        C560   1.355   1_655  A
N555        C559   1.357   1_655  A
N555        H587   1.040       .  S
N556        C563   1.353   1_455  A
N556        C564   1.351   1_455  A
N557        C562   1.353   1_655  A
N557        C561   1.352   1_655  A
N557        H588   1.038       .  S
N558        C565   1.350       .  A
N558        C566   1.351       .  A
C559        C567   1.390       .  A
C559        C575   1.426       .  A
C560        C576   1.417       .  A
C560        C568   1.385       .  A
C561        C569   1.388       .  A
C561        C578   1.414   1_455  A
C562        C577   1.414   1_455  A
C562        C570   1.387       .  A
C563        C575   1.416   1_655  A
C563        C571   1.387       .  A
C564        C578   1.412       .  A
C564        C572   1.385       .  A
C565        C573   1.388       .  A
C565        C576   1.413   1_655  A
C566        C574   1.385       .  A
C566        C577   1.412       .  A
C567        C568   1.376       .  A
C567        H579   1.081       .  S
C568        H580   1.082       .  S
C569        C570   1.375       .  A
C569        H581   1.082       .  S
C570        H582   1.082       .  S
C571        C572   1.369       .  A
C571        H583   1.080       .  S
C572        H584   1.081       .  S
C573        C574   1.373       .  A
C573        H585   1.082       .  S
C574        H586   1.082       .  S
C576        C907   1.486   1_455  S
C577        C874   1.483       .  S
C578        C897   1.480   1_655  S
N589        C594   1.353       .  A
N589        C593   1.355       .  A
N589        H621   1.041       .  S
N590        C597   1.352       .  A
N590        C598   1.351       .  A
N591        C596   1.352       .  A
N591        C595   1.351       .  A
N591        H622   1.040       .  S
N592        C599   1.350       .  A
N592        C600   1.351       .  A
C593        C601   1.390       .  A
C593        C609   1.420   1_556  A
C594        C610   1.412       .  A
C594        C602   1.384       .  A
C595        C603   1.388       .  A
C595        C612   1.412       .  A
C596        C611   1.412   1_554  A
C596        C604   1.387       .  A
C597        C609   1.417       .  A
C597        C605   1.389       .  A
C598        C612   1.411       .  A
C598        C606   1.384       .  A
C599        C607   1.386       .  A
C599        C610   1.411       .  A
C600        C608   1.386       .  A
C600        C611   1.411       .  A
C601        C602   1.375       .  A
C601        H613   1.081       .  S
C602        H614   1.083       .  S
C603        C604   1.376       .  A
C603        H615   1.082       .  S
C604        H616   1.083       .  S
C605        C606   1.373       .  A
C605        H617   1.081       .  S
C606        H618   1.082       .  S
C607        C608   1.375       .  A
C607        H619   1.082       .  S
C608        H620   1.082       .  S
C610        C854   1.486       .  S
C611        C844   1.484       .  S
C612        C864   1.483       .  S
N623        C628   1.355       .  A
N623        C627   1.351       .  A
N623        H655   1.042       .  S
N624        C631   1.350       .  A
N624        C632   1.351       .  A
N625        C630   1.351       .  A
N625        C629   1.353       .  A
N625        H656   1.040       .  S
N626        C633   1.355       .  A
N626        C634   1.354       .  A
C627        C635   1.385       .  A
C627        C643   1.411       .  A
C628        C644   1.418       .  A
C628        C636   1.390       .  A
C629        C637   1.387       .  A
C629        C646   1.413       .  A
C630        C645   1.413       .  A
C630        C638   1.388       .  A
C631        C643   1.410       .  A
C631        C639   1.386       .  A
C632        C646   1.411       .  A
C632        C640   1.386       .  A
C633        C641   1.391       .  A
C633        C644   1.425       .  A
C634        C642   1.382       .  A
C634        C645   1.413       .  A
C635        C636   1.374       .  A
C635        H647   1.083       .  S
C636        H648   1.081       .  S
C637        C638   1.376       .  A
C637        H649   1.082       .  S
C638        H650   1.082       .  S
C639        C640   1.373       .  A
C639        H651   1.082       .  S
C640        H652   1.082       .  S
C641        C642   1.373       .  A
C641        H653   1.080       .  S
C642        H654   1.082       .  S
C643        C867   1.483       .  S
C645        C857   1.488       .  S
C646        C834   1.482       .  S
N657        C662   1.353   1_455  A
N657        C661   1.354   1_455  A
N657        H689   1.041       .  S
N658        C665   1.352       .  A
N658        C666   1.351       .  A
N659        C664   1.352   1_455  A
N659        C663   1.352   1_455  A
N659        H690   1.040       .  S
N660        C667   1.351   1_655  A
N660        C668   1.351   1_655  A
C661        C669   1.390       .  A
C661        C677   1.421   1_655  A
C662        C678   1.413       .  A
C662        C670   1.385       .  A
C663        C671   1.388       .  A
C663        C680   1.413   1_655  A
C664        C679   1.413   1_656  A
C664        C672   1.387       .  A
C665        C677   1.416   1_556  A
C665        C673   1.388       .  A
C666        C680   1.411       .  A
C666        C674   1.384       .  A
C667        C675   1.387       .  A
C667        C678   1.413   1_455  A
C668        C676   1.385       .  A
C668        C679   1.411       .  A
C669        C670   1.376       .  A
C669        H681   1.082       .  S
C670        H682   1.082       .  S
C671        C672   1.376       .  A
C671        H683   1.082       .  S
C672        H684   1.082       .  S
C673        C674   1.373       .  A
C673        H685   1.081       .  S
C674        H686   1.082       .  S
C675        C676   1.374       .  A
C675        H687   1.082       .  S
C676        H688   1.082       .  S
C678        C824   1.489       .  S
C679        C887   1.485       .  S
C680        C814   1.486       .  S
N691        C696   1.350   1_655  A
N691        C695   1.353   1_655  A
N691        H723   1.043       .  S
N692        C699   1.353   1_455  A
N692        C700   1.352   1_455  A
N693        C698   1.353   1_655  A
N693        C697   1.351   1_655  A
N693        H724   1.041       .  S
N694        C701   1.349       .  A
N694        C702   1.349       .  A
C695        C703   1.388       .  A
C695        C711   1.414       .  A
C696        C712   1.409       .  A
C696        C704   1.385       .  A
C697        C705   1.387       .  A
C697        C714   1.413   1_455  A
C698        C713   1.414   1_455  A
C698        C706   1.388       .  A
C699        C711   1.422   1_655  A
C699        C707   1.391       .  A
C700        C714   1.411       .  A
C700        C708   1.382       .  A
C701        C709   1.386       .  A
C701        C712   1.409   1_655  A
C702        C710   1.388       .  A
C702        C713   1.412       .  A
C703        C704   1.376       .  A
C703        H715   1.081       .  S
C704        H716   1.083       .  S
C705        C706   1.377       .  A
C705        H717   1.082       .  S
C706        H718   1.082       .  S
C707        C708   1.374       .  A
C707        H719   1.081       .  S
C708        H720   1.082       .  S
C709        C710   1.377       .  A
C709        H721   1.082       .  S
C710        H722   1.082       .  S
C712        C817   1.481       .  S
C713        C877   1.483       .  S
C714        C827   1.488       .  S
N725        C730   1.353       .  A
N725        C729   1.355       .  A
N725        H757   1.039       .  S
N726        C733   1.353       .  A
N726        C734   1.352       .  A
N727        C732   1.353       .  A
N727        C731   1.353       .  A
N727        H758   1.040       .  S
N728        C735   1.350       .  A
N728        C736   1.351       .  A
C729        C737   1.389       .  A
C729        C745   1.420   1_554  A
C730        C746   1.413       .  A
C730        C738   1.386       .  A
C731        C739   1.388       .  A
C731        C748   1.414       .  A
C732        C747   1.414       .  A
C732        C740   1.386       .  A
C733        C745   1.420       .  A
C733        C741   1.389       .  A
C734        C748   1.411       .  A
C734        C742   1.384       .  A
C735        C743   1.387       .  A
C735        C746   1.411       .  A
C736        C744   1.386       .  A
C736        C747   1.412   1_554  A
C737        C738   1.375       .  A
C737        H749   1.081       .  S
C738        H750   1.082       .  S
C739        C740   1.375       .  A
C739        H751   1.082       .  S
C740        H752   1.082       .  S
C741        C742   1.373       .  A
C741        H753   1.081       .  S
C742        H754   1.082       .  S
C743        C744   1.372       .  A
C743        H755   1.082       .  S
C744        H756   1.082       .  S
C746        C804   1.480       .  S
C747        C847   1.486       .  S
C748        C794   1.484       .  S
N759        C764   1.352       .  A
N759        C763   1.354       .  A
N759        H791   1.043       .  S
N760        C767   1.353       .  A
N760        C768   1.353       .  A
N761        C766   1.354       .  A
N761        C765   1.353       .  A
N761        H792   1.037       .  S
N762        C769   1.350       .  A
N762        C770   1.350       .  A
C763        C771   1.389       .  A
C763        C779   1.418       .  A
C764        C780   1.410       .  A
C764        C772   1.385       .  A
C765        C773   1.388       .  A
C765        C782   1.416       .  A
C766        C781   1.414       .  A
C766        C774   1.386       .  A
C767        C779   1.423       .  A
C767        C775   1.390       .  A
C768        C782   1.414       .  A
C768        C776   1.384       .  A
C769        C777   1.386       .  A
C769        C780   1.408       .  A
C770        C778   1.387       .  A
C770        C781   1.412       .  A
C771        C772   1.373       .  A
C771        H783   1.081       .  S
C772        H784   1.082       .  S
C773        C774   1.375       .  A
C773        H785   1.082       .  S
C774        H786   1.082       .  S
C775        C776   1.373       .  A
C775        H787   1.081       .  S
C776        H788   1.082       .  S
C777        C778   1.373       .  A
C777        H789   1.082       .  S
C778        H790   1.082       .  S
C780        C807   1.477       .  S
C781        C837   1.482       .  S
C782        C797   1.485       .  S
C793        C794   1.402       .  A
C793        C798   1.398       .  A
C793        H799   1.083       .  S
C794        C795   1.404       .  A
C795        C796   1.398       .  A
C795        H800   1.083       .  S
C796        C797   1.403       .  A
C796        H801   1.083       .  S
C797        C798   1.404       .  A
C798        H802   1.083       .  S
C803        C804   1.402       .  A
C803        C808   1.397       .  A
C803        H809   1.083       .  S
C804        C805   1.403       .  A
C805        C806   1.395       .  A
C805        H810   1.083       .  S
C806        C807   1.401       .  A
C806        H811   1.083       .  S
C807        C808   1.403       .  A
C808        H812   1.083       .  S
C813        C818   1.399       .  A
C813        H819   1.083       .  S
C814        C815   1.403   1_455  A
C815        C816   1.395       .  A
C815        H820   1.083       .  S
C816        C817   1.403   1_655  A
C816        H821   1.083       .  S
C818        H822   1.083       .  S
C823        C828   1.399       .  A
C823        H829   1.083       .  S
C824        C825   1.404       .  A
C825        C826   1.398       .  A
C825        H830   1.083       .  S
C826        C827   1.405       .  A
C826        H831   1.083       .  S
C828        H832   1.083       .  S
C833        C834   1.403       .  A
C833        C838   1.398       .  A
C833        H839   1.083       .  S
C834        C835   1.402       .  A
C835        C836   1.397       .  A
C835        H840   1.083       .  S
C836        C837   1.402       .  A
C836        H841   1.083       .  S
C837        C838   1.403       .  A
C838        H842   1.083       .  S
C843        C844   1.403       .  A
C843        C848   1.398       .  A
C843        H849   1.083       .  S
C844        C845   1.403   1_556  A
C845        C846   1.397       .  A
C845        H850   1.083       .  S
C846        C847   1.404   1_554  A
C846        H851   1.083       .  S
C847        C848   1.404       .  A
C848        H852   1.083       .  S
C853        C854   1.403       .  A
C853        C858   1.398       .  A
C853        H859   1.083       .  S
C854        C855   1.404       .  A
C855        C856   1.399       .  A
C855        H860   1.083       .  S
C856        C857   1.404       .  A
C856        H861   1.083       .  S
C857        C858   1.405       .  A
C858        H862   1.083       .  S
C863        C864   1.402       .  A
C863        C868   1.395       .  A
C863        H869   1.083       .  S
C864        C865   1.404       .  A
C865        C866   1.398       .  A
C865        H870   1.083       .  S
C866        C867   1.403       .  A
C866        H871   1.083       .  S
C867        C868   1.403       .  A
C868        H872   1.083       .  S
C873        C874   1.402       .  A
C873        C878   1.398       .  A
C873        H879   1.083       .  S
C875        C876   1.398       .  A
C875        H880   1.083       .  S
C876        H881   1.083       .  S
C877        C878   1.403       .  A
C878        H882   1.083       .  S
C883        C888   1.398       .  A
C883        H889   1.083       .  S
C884        C885   1.404   1_455  A
C885        C886   1.398       .  A
C885        H890   1.083       .  S
C886        C887   1.404   1_655  A
C886        H891   1.083       .  S
C888        H892   1.083       .  S
C893        C894   1.402   1_655  A
C893        C898   1.395       .  A
C893        H899   1.083       .  S
C895        C896   1.397       .  A
C895        H900   1.083       .  S
C896        H901   1.083       .  S
C897        C898   1.402   1_455  A
C898        H902   1.083       .  S
C903        C904   1.402       .  A
C903        C908   1.398       .  A
C903        H909   1.083       .  S
C905        C906   1.399       .  A
C905        H910   1.083       .  S
C906        H911   1.083       .  S
C907        C908   1.404       .  A
C908        H912   1.083       .  S
C913        C914   1.341       .  D
C913        H915   1.087       .  S
C914        H916   1.087   1_545  S
C917        C918   1.339   1_565  D
C917        H919   1.087       .  S
C918        H920   1.087       .  S
C921        C922   1.346   1_554  D
C921        H923   1.087   1_545  S
C922        H924   1.087       .  S
C925        C926   1.343   1_544  D
C925        H927   1.087       .  S
C926        H928   1.087       .  S
