geometry optimzed in LAMMPS
_audit_creation_date              2020-11-30 
_audit_creation_method            'lammps2cif' 
_symmetry_space_group_name_H-M    'P1' 
_symmetry_Int_Tables_number       1 
_symmetry_cell_setting            triclinic 
loop_ 
_symmetry_equiv_pos_as_xyz 
  x,y,z 
_cell_length_a                    44.0654528 
_cell_length_b                    44.42129103617678 
_cell_length_c                    44.258521457571945 
_cell_angle_alpha                 90.03646374196225 
_cell_angle_beta                  90.05757822377943 
_cell_angle_gamma                 90.01373401328682 
loop_ 
_atom_site_label 
_atom_site_type_symbol 
_atom_site_fract_x 
_atom_site_fract_y 
_atom_site_fract_z 
_atom_site_charge 
O1          O  0.02635801  0.04230115  0.12280368    -0.73000
O2          O  0.02558525  0.45210523  0.12344901    -0.74000
O3          O  0.02630448  0.49701894  0.07721895    -0.62600
O4          O  0.02506578  0.99801035  0.16902957    -0.71000
O5          O  0.47476684  0.99887058  0.16819458    -0.70500
O6          O  0.47606821  0.49652020  0.07710956    -0.61800
O7          O  0.47529122  0.45233174  0.12320010    -0.74300
O8          O  0.47613700  0.04291891  0.12196043    -0.73100
Cu9        Cu  0.02757853  0.49746877  0.12271493     1.04600
Cu10       Cu  0.47361267  0.99770375  0.12306303     1.04300
C11         C  0.00152177  0.05702691  0.12181672     0.93200
C12         C  0.00034403  0.43788079  0.12376474     0.92400
C13         C  0.00077228  0.99752883  0.06351098     0.84500
C14         C  0.99955078  0.49985099  0.18198558     0.90800
O15         O  0.02580012  0.20118415  0.12355836    -0.73000
O16         O  0.02895314  0.29189748  0.12695520    -0.74000
O17         O  0.02547049  0.24436312  0.17064097    -0.62600
O18         O  0.03004727  0.24831380  0.08014964    -0.71000
O19         O  0.47994812  0.24968656  0.07803792    -0.70500
O20         O  0.47517806  0.24622263  0.16864306    -0.61800
O21         O  0.47873298  0.29308079  0.12476772    -0.74300
O22         O  0.47573166  0.20297958  0.12158219    -0.73100
Cu23       Cu  0.02932969  0.24640828  0.12545327     1.04600
Cu24       Cu  0.47568340  0.24807743  0.12318731     1.04300
C25         C  0.50018402  0.18764126  0.12239789     0.93200
C26         C  0.50419987  0.30679423  0.12579981     0.92400
C27         C  0.49967764  0.24402886  0.18398439     0.84500
C28         C  0.50567881  0.24933872  0.06477485     0.90800
O29         O  0.27485731  0.99780257  0.17061453    -0.73000
O30         O  0.27949825  0.99688736  0.07952871    -0.74000
O31         O  0.27654688  0.04245914  0.12458038    -0.62600
O32         O  0.27635210  0.45155794  0.12592976    -0.71000
O33         O  0.22615159  0.45104292  0.12437210    -0.70500
O34         O  0.22630867  0.04143193  0.12275088    -0.61800
O35         O  0.22727066  0.49658355  0.07941771    -0.74300
O36         O  0.22444353  0.49614346  0.16961989    -0.73100
Cu37       Cu  0.27910731  0.99724687  0.12517612     1.04600
Cu38       Cu  0.22416048  0.49627886  0.12446963     1.04300
C39         C  0.24888963  0.99718194  0.18354255     0.93200
C40         C  0.25263142  0.49753671  0.06561186     0.92400
C41         C  0.25111519  0.05627197  0.12391010     0.84500
C42         C  0.25139867  0.43691786  0.12552547     0.90800
O43         O  0.27385450  0.24665876  0.17293182    -0.73000
O44         O  0.27833525  0.24828727  0.08263217    -0.74000
O45         O  0.27428938  0.29252996  0.12833289    -0.62600
O46         O  0.27775726  0.20192941  0.12665224    -0.71000
O47         O  0.22752330  0.20031940  0.12466105    -0.70500
O48         O  0.22416976  0.29069587  0.12574476    -0.61800
O49         O  0.22810355  0.24611627  0.08020399    -0.74300
O50         O  0.22353363  0.24481813  0.17057551    -0.73100
Cu51       Cu  0.27782231  0.24736995  0.12778267     1.04600
Cu52       Cu  0.22409416  0.24539886  0.12524185     1.04300
C53         C  0.24803125  0.24583782  0.18596401     0.93200
C54         C  0.25389784  0.24779976  0.06717378     0.92400
C55         C  0.24867764  0.30600278  0.12679221     0.84500
C56         C  0.25312844  0.18681086  0.12504333     0.90800
O57         O  0.03117261  0.46241910  0.87109283    -0.73000
O58         O  0.03103677  0.05244962  0.87327093    -0.74000
O59         O  0.03148853  0.00634675  0.91773508    -0.62600
O60         O  0.02962785  0.50797076  0.82635513    -0.71000
O61         O  0.47918054  0.50741298  0.82746781    -0.70500
O62         O  0.48123857  0.00550067  0.91817993    -0.61800
O63         O  0.48050061  0.05238667  0.87435670    -0.74300
O64         O  0.48095668  0.46113584  0.87165490    -0.73100
Cu65       Cu  0.03285976  0.00742273  0.87231601     1.04600
Cu66       Cu  0.47832322  0.50654442  0.87270517     1.04300
C67         C  0.50651887  0.44745435  0.87112806     0.93200
C68         C  0.50560716  0.06684846  0.87432761     0.92400
C69         C  0.50600296  0.50511763  0.93182409     0.84500
C70         C  0.50492864  0.00841702  0.81323919     0.90800
O71         O  0.03710573  0.25805561  0.91922909    -0.73000
O72         O  0.03404749  0.25692800  0.82830624    -0.74000
O73         O  0.03406935  0.30309723  0.87337448    -0.62600
O74         O  0.03678063  0.21220327  0.87407310    -0.71000
O75         O  0.48610544  0.21125599  0.87598680    -0.70500
O76         O  0.48371980  0.30129396  0.87493928    -0.61800
O77         O  0.48349482  0.25553134  0.83036160    -0.74300
O78         O  0.48665185  0.25679934  0.92046687    -0.73100
Cu79       Cu  0.03732800  0.25770099  0.87369147     1.04600
Cu80       Cu  0.48333580  0.25625416  0.87549574     1.04300
C81         C  0.51214309  0.25726675  0.93422971     0.93200
C82         C  0.50793577  0.25537994  0.81496765     0.92400
C83         C  0.50818967  0.31659600  0.87432960     0.84500
C84         C  0.51146679  0.19739203  0.87488968     0.90800
O85         O  0.28440106  0.45595264  0.87414583    -0.73000
O86         O  0.28028024  0.04606819  0.87513559    -0.74000
O87         O  0.28207607  0.99906769  0.91872163    -0.62600
O88         O  0.28262412  0.50133406  0.82885475    -0.71000
O89         O  0.23241095  0.50123746  0.83012190    -0.70500
O90         O  0.23177322  0.99874169  0.92004391    -0.61800
O91         O  0.23012423  0.04592577  0.87665431    -0.74300
O92         O  0.23414140  0.45536271  0.87437488    -0.73100
Cu93       Cu  0.28255558  0.00099225  0.87325078     1.04600
Cu94       Cu  0.23157654  0.50054397  0.87526177     1.04300
C95         C  0.25942166  0.44132149  0.87392708     0.93200
C96         C  0.25524057  0.06040936  0.87662541     0.92400
C97         C  0.25943208  0.50019885  0.93447061     0.84500
C98         C  0.25366649  0.00341405  0.81445130     0.90800
O99         O  0.28361667  0.24990018  0.83285494    -0.73000
O100        O  0.28111432  0.24949782  0.92358340    -0.74000
O101        O  0.27959050  0.20468988  0.87789324    -0.62600
O102        O  0.28536871  0.29510941  0.87871689    -0.71000
O103        O  0.23518133  0.29776766  0.87758297    -0.70500
O104        O  0.22952208  0.20738850  0.87622008    -0.61800
O105        O  0.23085426  0.25177236  0.92195090    -0.74300
O106        O  0.23338463  0.25325305  0.83187756    -0.73100
Cu107      Cu  0.28420490  0.24972967  0.87832238     1.04600
Cu108      Cu  0.23052745  0.25270507  0.87687400     1.04300
C109        C  0.25873316  0.25136399  0.81809245     0.93200
C110        C  0.25545909  0.25000933  0.93701313     0.92400
C111        C  0.25373287  0.19161500  0.87685659     0.84500
C112        C  0.26107839  0.31077991  0.87824956     0.90800
O113        O  0.03882711  0.48131521  0.36998456    -0.73000
O114        O  0.44782856  0.47768891  0.37360179    -0.74000
O115        O  0.49171877  0.47955738  0.32660435    -0.62600
O116        O  0.99465325  0.47872765  0.41712800    -0.71000
O117        O  0.99143083  0.03103064  0.41784438    -0.70500
O118        O  0.49075428  0.02921052  0.32693408    -0.61800
O119        O  0.44577304  0.02955626  0.37279764    -0.74300
O120        O  0.03604764  0.03112924  0.37192121    -0.73100
Cu121      Cu  0.49335862  0.47755484  0.37181955     1.04600
Cu122      Cu  0.99092889  0.03193738  0.37233969     1.04300
C123        C  0.05075249  0.00641129  0.37156097     0.93200
C124        C  0.43144963  0.00466784  0.37417012     0.92400
C125        C  0.99063076  0.00379727  0.31329263     0.84500
C126        C  0.49200884  0.00642528  0.43263232     0.90800
O127        O  0.45125239  0.21746991  0.37505017    -0.73000
O128        O  0.04178257  0.21688144  0.37357371    -0.74000
O129        O  0.99716075  0.21646474  0.41952162    -0.62600
O130        O  0.49570750  0.21779272  0.32884050    -0.71000
O131        O  0.49621006  0.26764050  0.32961370    -0.70500
O132        O  0.99691529  0.26629494  0.42042608    -0.61800
O133        O  0.04217004  0.26678631  0.37499903    -0.74300
O134        O  0.45129064  0.26740574  0.37535233    -0.73100
Cu135      Cu  0.99654192  0.21537999  0.37412427     1.04600
Cu136      Cu  0.49668525  0.26888853  0.37505151     1.04300
C137        C  0.43697022  0.24240851  0.37575281     0.93200
C138        C  0.05631931  0.24168952  0.37417282     0.92400
C139        C  0.49719524  0.24150732  0.43439195     0.84500
C140        C  0.99552568  0.24316171  0.31479450     0.90800
O141        O  0.24206070  0.47982684  0.32990786    -0.73000
O142        O  0.23908332  0.48109381  0.42018305    -0.74000
O143        O  0.19526767  0.48405032  0.37327650    -0.62600
O144        O  0.28556172  0.47699118  0.37661742    -0.71000
O145        O  0.28748155  0.02898609  0.37406688    -0.70500
O146        O  0.19697481  0.03469704  0.37215755    -0.61800
O147        O  0.24155764  0.03292345  0.41848331    -0.74300
O148        O  0.24358846  0.03081905  0.32773296    -0.73100
Cu149      Cu  0.24028340  0.47879833  0.37503342     1.04600
Cu150      Cu  0.24244016  0.03361863  0.37307670     1.04300
C151        C  0.24290180  0.00553694  0.31399215     0.93200
C152        C  0.24053673  0.00838391  0.43343438     0.92400
C153        C  0.18133978  0.01051619  0.37248424     0.84500
C154        C  0.30039889  0.00323823  0.37458083     0.90800
O155        O  0.29232789  0.21832871  0.37584254    -0.73000
O156        O  0.20137076  0.21797373  0.37770706    -0.74000
O157        O  0.24587459  0.21770750  0.33151752    -0.62600
O158        O  0.24813897  0.21828133  0.42220229    -0.71000
O159        O  0.24847770  0.26807867  0.42185926    -0.70500
O160        O  0.24485336  0.26741950  0.33102337    -0.61800
O161        O  0.20143455  0.26789397  0.37808894    -0.74300
O162        O  0.29170333  0.26821973  0.37475893    -0.73100
Cu163      Cu  0.24690424  0.21631607  0.37684053     1.04600
Cu164      Cu  0.24659184  0.26961568  0.37643440     1.04300
C165        C  0.30633792  0.24349131  0.37475349     0.93200
C166        C  0.18706871  0.24299692  0.37828352     0.92400
C167        C  0.24488195  0.24234976  0.31676075     0.84500
C168        C  0.24912405  0.24323744  0.43647386     0.90800
O169        O  0.99496707  0.47490214  0.66777120    -0.73000
O170        O  0.99125347  0.47425635  0.57706036    -0.74000
O171        O  0.03826712  0.47488960  0.62118219    -0.62600
O172        O  0.44774947  0.47391294  0.62441748    -0.71000
O173        O  0.44791504  0.02911775  0.62485195    -0.70500
O174        O  0.03886926  0.02828923  0.62144367    -0.61800
O175        O  0.49171530  0.02928211  0.57768504    -0.74300
O176        O  0.49544225  0.02837567  0.66846186    -0.73100
Cu177      Cu  0.99303233  0.47276801  0.62252055     1.04600
Cu178      Cu  0.49344659  0.03057430  0.62309111     1.04300
C179        C  0.99654559  0.00323401  0.68265962     0.93200
C180        C  0.49020981  0.00442195  0.56321733     0.92400
C181        C  0.05273730  0.00304149  0.62110683     0.84500
C182        C  0.43346398  0.00420216  0.62604287     0.90800
O183        O  0.50050267  0.22189799  0.58033592    -0.73000
O184        O  0.50430011  0.22480825  0.67108394    -0.74000
O185        O  0.45721212  0.22215808  0.62750408    -0.62600
O186        O  0.04771487  0.22428126  0.62410156    -0.71000
O187        O  0.04651072  0.27412842  0.62210379    -0.70500
O188        O  0.45596729  0.27202420  0.62644589    -0.61800
O189        O  0.00390477  0.27475418  0.66932685    -0.74300
O190        O  0.99893844  0.27154340  0.57914175    -0.73100
Cu191      Cu  0.50245960  0.22153430  0.62579572     1.04600
Cu192      Cu  0.00127499  0.27481939  0.62420075     1.04300
C193        C  0.49874223  0.24645491  0.56535765     0.93200
C194        C  0.00532141  0.25035431  0.68444119     0.92400
C195        C  0.44223231  0.24670830  0.62724274     0.84500
C196        C  0.06145472  0.24955981  0.62274228     0.90800
O197        O  0.19706889  0.47554751  0.62541913    -0.73000
O198        O  0.28825577  0.47385448  0.62509814    -0.74000
O199        O  0.24311146  0.47429008  0.67058329    -0.62600
O200        O  0.24231761  0.47460375  0.58006280    -0.71000
O201        O  0.24293677  0.02894114  0.57901591    -0.70500
O202        O  0.24332680  0.02988450  0.66984014    -0.61800
O203        O  0.28830583  0.02977562  0.62434806    -0.74300
O204        O  0.19782364  0.02951345  0.62404771    -0.73100
Cu205      Cu  0.24261417  0.47279597  0.62533525     1.04600
Cu206      Cu  0.24308620  0.03126324  0.62435131     1.04300
C207        C  0.18346626  0.00460291  0.62332606     0.93200
C208        C  0.30285957  0.00498326  0.62476418     0.92400
C209        C  0.24311960  0.00493523  0.68422531     0.84500
C210        C  0.24297177  0.00383522  0.56484037     0.90800
O211        O  0.25139275  0.27415897  0.58216261    -0.73000
O212        O  0.25190071  0.27529193  0.67253432    -0.74000
O213        O  0.29690840  0.27514901  0.62751580    -0.62600
O214        O  0.20617273  0.27401587  0.62745981    -0.71000
O215        O  0.20693348  0.22413496  0.62841903    -0.70500
O216        O  0.29731834  0.22526109  0.62810659    -0.61800
O217        O  0.25260655  0.22548964  0.67371186    -0.74300
O218        O  0.25179381  0.22438266  0.58256623    -0.73100
Cu219      Cu  0.25155755  0.27636641  0.62738420     1.04600
Cu220      Cu  0.25217565  0.22305701  0.62819710     1.04300
C221        C  0.25120994  0.24920828  0.56789105     0.93200
C222        C  0.25244029  0.25079633  0.68753124     0.92400
C223        C  0.31145700  0.25034103  0.62826751     0.84500
C224        C  0.19219875  0.24882033  0.62806035     0.90800
C225        C  0.39409932  0.26845047  0.64514723    -0.05800
C226        C  0.40874850  0.24619945  0.62798955     0.00100
C227        C  0.39126620  0.22515317  0.61126760    -0.08500
C228        C  0.35955081  0.22772526  0.61189358    -0.05800
C229        C  0.34491837  0.25017308  0.62874594     0.00100
C230        C  0.36232523  0.27061124  0.64625416    -0.08400
C231        C  0.34768972  0.29383458  0.66686917     0.62000
H232        H  0.40788358  0.28410676  0.65797148     0.12700
H233        H  0.34576459  0.21211827  0.59901405     0.12700
C234        C  0.40569824  0.20042207  0.59235291     0.62300
F235        F  0.36889095  0.30829774  0.68486747    -0.22900
F236        F  0.32697923  0.27991466  0.68574837    -0.20200
F237        F  0.33309397  0.31549960  0.64980338    -0.19900
F238        F  0.41980148  0.17979851  0.61107331    -0.20000
F239        F  0.42674489  0.21267185  0.57271723    -0.20300
F240        F  0.38443785  0.18500702  0.57524097    -0.23000
C241        C  0.10946542  0.22941676  0.64244830    -0.05800
C242        C  0.09491876  0.25010157  0.62335341     0.00100
C243        C  0.11244228  0.27037736  0.60586386    -0.08500
C244        C  0.14418355  0.26921065  0.60838074    -0.05800
C245        C  0.15872945  0.24842623  0.62736286     0.00100
C246        C  0.14118411  0.22829753  0.64502521    -0.08400
C247        C  0.15554638  0.20643328  0.66726282     0.62000
H248        H  0.09562451  0.21425863  0.65575008     0.12700
H249        H  0.15801178  0.28451031  0.59526974     0.12700
C250        C  0.09800919  0.29259203  0.58404967     0.62300
F251        F  0.13404383  0.19263244  0.68537343    -0.22900
F252        F  0.17553282  0.22161369  0.68598423    -0.20200
F253        F  0.17089359  0.18411684  0.65176696    -0.19900
F254        F  0.08275317  0.31465155  0.60000602    -0.20000
F255        F  0.07791507  0.27773545  0.56517339    -0.20300
F256        F  0.11945165  0.30667218  0.56609205    -0.23000
C257        C  0.35147359  0.48435968  0.64727796    -0.05800
C258        C  0.33625892  0.00541715  0.62481983     0.00100
C259        C  0.35312199  0.02126676  0.60271907    -0.08500
C260        C  0.38492764  0.02069192  0.60440851    -0.05800
C261        C  0.40007341  0.00441826  0.62693756     0.00100
C262        C  0.38332730  0.48440665  0.64882494    -0.08400
C263        C  0.39920939  0.47085233  0.67605176     0.62000
H264        H  0.33827141  0.47362851  0.66487664     0.12700
H265        H  0.39834185  0.03256640  0.58774223     0.12700
C266        C  0.33772940  0.03765289  0.57676158     0.62300
F267        F  0.37879241  0.46182464  0.69801764    -0.22900
F268        F  0.41869855  0.99162010  0.68959672    -0.20200
F269        F  0.41581067  0.44596925  0.66728268    -0.19900
F270        F  0.32150012  0.06196536  0.58763846    -0.20000
F271        F  0.31696168  0.50956877  0.56046559    -0.20300
F272        F  0.35852093  0.04836148  0.55594114    -0.23000
C273        C  0.10172553  0.02123353  0.60148670    -0.05800
C274        C  0.08616295  0.00246362  0.62165810     0.00100
C275        C  0.10221634  0.48249961  0.64464041    -0.08500
C276        C  0.13405831  0.48334213  0.64419070    -0.05800
C277        C  0.15004275  0.00460725  0.62193302     0.00100
C278        C  0.13359022  0.02250342  0.60104177    -0.08400
C279        C  0.14945236  0.04200585  0.57767965     0.62000
H280        H  0.08861420  0.03480917  0.58589476     0.12700
H281        H  0.14693682  0.46989775  0.66006749     0.12700
C282        C  0.08611736  0.46430592  0.66889410     0.62300
F283        F  0.12920594  0.05390068  0.55693395    -0.22900
F284        F  0.17034764  0.52188502  0.56347834    -0.20200
F285        F  0.16401727  0.06573354  0.59178177    -0.19900
F286        F  0.07060764  0.44053718  0.65592365    -0.20000
F287        F  0.06657126  0.98241964  0.68224115    -0.20300
F288        F  0.10627806  0.45254412  0.68979387    -0.23000
C289        C  0.23663205  0.26839433  0.48474338    -0.05800
C290        C  0.25030323  0.24383258  0.47013542     0.00100
C291        C  0.26493801  0.22142072  0.48786046    -0.08500
C292        C  0.26463259  0.22430035  0.51956467    -0.05800
C293        C  0.25072364  0.24876071  0.53418680     0.00100
C294        C  0.23645522  0.27138040  0.51639934    -0.08400
C295        C  0.22030206  0.29825088  0.53035245     0.62000
H296        H  0.22569193  0.28536138  0.47097408     0.12700
H297        H  0.27559124  0.20733980  0.53333152     0.12700
C298        C  0.28166782  0.19500451  0.47373514     0.62300
F299        F  0.20508501  0.31523500  0.50892435    -0.22900
F300        F  0.24115934  0.31689683  0.54434312    -0.20200
F301        F  0.19915299  0.28842643  0.55119186    -0.19900
F302        F  0.30235057  0.20542057  0.45272435    -0.20000
F303        F  0.26122062  0.17584695  0.45985838    -0.20300
F304        F  0.29752858  0.17843235  0.49502644    -0.23000
C305        C  0.25473340  0.02896728  0.51638395    -0.05800
C306        C  0.24239661  0.00382043  0.53118658     0.00100
C307        C  0.22783037  0.47722503  0.51410183    -0.08500
C308        C  0.22756858  0.48077265  0.48252008    -0.05800
C309        C  0.24114357  0.00848773  0.46714677     0.00100
C310        C  0.25473705  0.03171354  0.48470565    -0.08400
C311        C  0.27000204  0.05897555  0.47053138     0.62000
H312        H  0.26482207  0.04658015  0.53001450     0.12700
H313        H  0.21679539  0.46379313  0.46860909     0.12700
C314        C  0.21311903  0.44940114  0.52777271     0.62300
F315        F  0.28449118  0.07674532  0.49184959    -0.22900
F316        F  0.24855723  0.07668287  0.45623206    -0.20200
F317        F  0.29316023  0.54471015  0.45137296    -0.19900
F318        F  0.20159331  0.93401128  0.50656930    -0.20000
F319        F  0.19171397  0.45778495  0.54901013    -0.20300
F320        F  0.23506191  0.43163090  0.54123859    -0.23000
C321        C  0.98102791  0.26384628  0.48274278    -0.05800
C322        C  0.49724856  0.24135679  0.46794474     0.00100
C323        C  0.51421001  0.22040097  0.48529872    -0.08500
C324        C  0.51361637  0.22276839  0.51700471    -0.05800
C325        C  0.49720009  0.24547211  0.53184315     0.00100
C326        C  0.98054243  0.26642005  0.51442643    -0.08400
C327        C  0.96183517  0.29134921  0.52886175     0.62000
H328        H  0.96865449  0.27994635  0.46910596     0.12700
H329        H  0.52657887  0.20707707  0.53057399     0.12700
C330        C  0.53383123  0.19634943  0.47063711     0.62300
F331        F  0.94385958  0.30612128  0.50791122    -0.22900
F332        F  0.98086494  0.31245754  0.54187529    -0.20200
F333        F  0.94284814  0.27941142  0.55067285    -0.19900
F334        F  0.55327129  0.20946544  0.44992965    -0.20000
F335        F  0.51566045  0.17541462  0.45620840    -0.20300
F336        F  0.55136266  0.18113256  0.49163155    -0.23000
C337        C  0.38845574  0.26237995  0.35701491    -0.05800
C338        C  0.40358107  0.24244204  0.37638245     0.00100
C339        C  0.38670105  0.22345851  0.39583332    -0.08500
C340        C  0.35491656  0.22423897  0.39409079    -0.05800
C341        C  0.33976232  0.24390848  0.37442830     0.00100
C342        C  0.35667182  0.26337811  0.35544359    -0.08400
C343        C  0.34150815  0.28444555  0.33296424     0.62000
H344        H  0.40184159  0.27717178  0.34292054     0.12700
H345        H  0.34155476  0.20967515  0.40846939     0.12700
C346        C  0.40195454  0.20354441  0.41929380     0.62300
F347        F  0.36237049  0.29775745  0.31377694    -0.22900
F348        F  0.32652356  0.30717645  0.34820199    -0.15400
F349        F  0.32102962  0.26858246  0.31537373    -0.19900
F350        F  0.42232231  0.22036279  0.43611398    -0.20000
F351        F  0.41712131  0.18020327  0.40521933    -0.20300
F352        F  0.38113228  0.19110572  0.43910051    -0.23000
C353        C  0.10442168  0.26037774  0.39549192    -0.05800
C354        C  0.08978391  0.24144127  0.37470243     0.00100
C355        C  0.10720975  0.22312873  0.35504101    -0.08500
C356        C  0.13897976  0.22409110  0.35736184    -0.05800
C357        C  0.15361663  0.24305959  0.37809651     0.00100
C358        C  0.13621713  0.26153024  0.39763857    -0.08400
C359        C  0.15096852  0.28177089  0.42114819     0.62000
H360        H  0.09062707  0.27419875  0.41025261     0.12700
H361        H  0.15276705  0.21027473  0.34259152     0.12700
C362        C  0.09252685  0.20350338  0.33098811     0.62300
F363        F  0.12980068  0.29408970  0.44066772    -0.22900
F364        F  0.16592620  0.30521349  0.40702265    -0.20200
F365        F  0.17143353  0.26538536  0.43823202    -0.19900
F366        F  0.07222509  0.22039728  0.31422632    -0.20000
F367        F  0.07742212  0.17977143  0.34445328    -0.20300
F368        F  0.11374898  0.19163333  0.31124837    -0.23000
C369        C  0.47455682  0.48196309  0.47960335    -0.05800
C370        C  0.49185916  0.00679713  0.46603831     0.00100
C371        C  0.01420370  0.02198607  0.48316348    -0.08500
C372        C  0.01253724  0.02088483  0.51489861    -0.05800
C373        C  0.48968020  0.00480247  0.52979588     0.00100
C374        C  0.47264738  0.47997774  0.51132810    -0.08400
C375        C  0.45023628  0.45819028  0.52556021     0.62000
H376        H  0.46087271  0.46723934  0.46561029     0.12700
H377        H  0.02949676  0.03228900  0.52846027     0.12700
C378        C  0.04046308  0.03816336  0.46804704     0.62300
F379        F  0.43190297  0.44455934  0.50411550    -0.22900
F380        F  0.43162797  0.47347343  0.54552708    -0.20200
F381        F  0.46565273  0.43574971  0.54079942    -0.19900
F382        F  0.02978250  0.06231824  0.45149363    -0.20000
F383        F  0.05549144  0.01844661  0.44905817    -0.20300
F384        F  0.06121398  0.04900961  0.48889377    -0.23000
C385        C  0.38396078  0.47775545  0.36262807    -0.05800
C386        C  0.39790097  0.00456774  0.37518411     0.00100
C387        C  0.38091788  0.02701317  0.39053179    -0.08500
C388        C  0.34916808  0.02514442  0.39002915    -0.05800
C389        C  0.33390013  0.00177990  0.37505921     0.00100
C390        C  0.35209891  0.47579122  0.36273710    -0.08400
C391        C  0.33679190  0.44968497  0.34651079     0.62000
H392        H  0.39718030  0.46076099  0.35104864     0.12700
H393        H  0.33585008  0.04221482  0.40138672     0.12700
C394        C  0.39584708  0.05263586  0.40787958     0.62300
F395        F  0.35751295  0.43157872  0.33160130    -0.22900
F396        F  0.32130079  0.93435725  0.36380199    -0.20200
F397        F  0.31649456  0.46050336  0.32527261    -0.19900
F398        F  0.40954987  0.07231752  0.38791009    -0.20000
F399        F  0.41974093  0.53776311  0.42900403    -0.20300
F400        F  0.37502582  0.06892729  0.42465776    -0.23000
C401        C  0.09879237  0.02858184  0.38920364    -0.05800
C402        C  0.08416591  0.00742382  0.37065717     0.00100
C403        C  0.10308999  0.49197644  0.34764469    -0.08500
C404        C  0.13485582  0.49361967  0.34947013    -0.05800
C405        C  0.14792918  0.01164363  0.37148730     0.00100
C406        C  0.13056007  0.03088103  0.39027084    -0.08400
C407        C  0.14528478  0.05284718  0.41216940     0.62000
H408        H  0.08502370  0.04306598  0.40331681     0.12700
H409        H  0.14871156  0.48059472  0.33404077     0.12700
C410        C  0.08839477  0.47382436  0.32247770     0.62300
F411        F  0.12409665  0.06673850  0.43059178    -0.22900
F412        F  0.16038271  0.07505527  0.39629488    -0.20200
F413        F  0.16561577  0.03775699  0.43056259    -0.19900
F414        F  0.06794094  0.49168785  0.30697034    -0.20000
F415        F  0.07343787  0.44920187  0.33436615    -0.20300
F416        F  0.10959958  0.46339368  0.30191086    -0.23000
C417        C  0.27035257  0.22907082  0.73595306    -0.05800
C418        C  0.25368677  0.25166189  0.72107464     0.00100
C419        C  0.23886630  0.27421271  0.73846391    -0.08500
C420        C  0.24161529  0.27335562  0.77008631    -0.05800
C421        C  0.25873548  0.25118445  0.78475975     0.00100
C422        C  0.27328959  0.22849297  0.76762857    -0.08400
C423        C  0.29121375  0.20343606  0.78272021     0.62000
H424        H  0.28156425  0.21204409  0.72247175     0.12700
H425        H  0.23053031  0.29030416  0.78379273     0.12700
C426        C  0.21963433  0.29878612  0.72413169     0.62300
F427        F  0.30034183  0.18172491  0.76220387    -0.22900
F428        F  0.27357072  0.18945781  0.80441406    -0.20200
F429        F  0.31689715  0.21525652  0.79622095    -0.19900
F430        F  0.19878062  0.28618490  0.70444529    -0.20000
F431        F  0.23807046  0.31870618  0.70868267    -0.20300
F432        F  0.20363741  0.31507906  0.74552074    -0.23000
C433        C  0.23103746  0.48496255  0.76858910    -0.05800
C434        C  0.25181525  0.00455426  0.78102063     0.00100
C435        C  0.27125061  0.02260155  0.76297613    -0.08500
C436        C  0.26719376  0.02242396  0.73141919    -0.05800
C437        C  0.24457841  0.00496230  0.71757485     0.00100
C438        C  0.22661304  0.48364372  0.73718940    -0.08400
C439        C  0.19934903  0.46691665  0.72451932     0.62000
H440        H  0.21522851  0.47355953  0.78338623     0.12700
H441        H  0.28215261  0.03551523  0.71713624     0.12700
C442        C  0.29565735  0.04251860  0.77674973     0.62300
F443        F  0.18072455  0.45592493  0.74716103    -0.22900
F444        F  0.20887921  0.44272309  0.70732977    -0.20200
F445        F  0.18234514  0.48618009  0.70675706    -0.19900
F446        F  0.31838907  0.02485277  0.78896310    -0.20000
F447        F  0.28322114  0.06045881  0.79910724    -0.20300
F448        F  0.30872827  0.06130085  0.75545748    -0.23000
C449        C  0.28136632  0.39342391  0.89241539    -0.05800
C450        C  0.25995365  0.40790032  0.87392216     0.00100
C451        C  0.24000889  0.39029797  0.85597451    -0.08500
C452        C  0.24147149  0.35875820  0.85819655    -0.05800
C453        C  0.26239875  0.34421264  0.87715132     0.00100
C454        C  0.28297771  0.36179642  0.89448841    -0.08400
C455        C  0.30575133  0.34756870  0.91593966     0.62000
H456        H  0.29660688  0.40723805  0.90571276     0.12700
H457        H  0.22618933  0.34503118  0.84484643     0.12700
C458        C  0.21798847  0.40447307  0.83370031     0.62300
F459        F  0.32096102  0.36894154  0.93300672    -0.22900
F460        F  0.32715625  0.33156017  0.89973812    -0.20200
F461        F  0.29089837  0.32845861  0.93563073    -0.19900
F462        F  0.23332237  0.42444511  0.81524048    -0.20000
F463        F  0.19530358  0.41949371  0.84909833    -0.20300
F464        F  0.20433300  0.38313220  0.81535520    -0.23000
C465        C  0.23041812  0.10917808  0.86459233    -0.05800
C466        C  0.25514106  0.09399249  0.87768265     0.00100
C467        C  0.27865434  0.11112991  0.89142941    -0.08500
C468        C  0.27685726  0.14274040  0.89062126    -0.05800
C469        C  0.25243820  0.15800515  0.87709391     0.00100
C470        C  0.22849255  0.14087915  0.86401450    -0.08400
C471        C  0.20124160  0.15558397  0.84894650     0.62000
H472        H  0.21256088  0.09585272  0.85439028     0.12700
H473        H  0.29480075  0.15594470  0.90082755     0.12700
C474        C  0.30529069  0.09650730  0.90765659     0.62300
F475        F  0.18241000  0.13464859  0.83527391    -0.22900
F476        F  0.21086206  0.17544310  0.82687545    -0.20200
F477        F  0.18424680  0.17080952  0.87030336    -0.19900
F478        F  0.32399896  0.08242220  0.88695248    -0.20000
F479        F  0.29477129  0.07569845  0.92841172    -0.20300
F480        F  0.32267410  0.11737175  0.92321694    -0.23000
C481        C  0.48479325  0.23589094  0.73408266    -0.05800
C482        C  0.00713800  0.25158183  0.71766995     0.00100
C483        C  0.03016768  0.26767290  0.73308367    -0.08500
C484        C  0.02977306  0.26812379  0.76486132    -0.05800
C485        C  0.00704138  0.25333802  0.78147158     0.00100
C486        C  0.48405048  0.23658538  0.76583522    -0.08400
C487        C  0.45946545  0.21896586  0.78220788     0.62000
H488        H  0.46762210  0.22357727  0.72163793     0.12700
H489        H  0.04704947  0.28055615  0.77701903     0.12700
C490        C  0.05545888  0.28360325  0.71610647     0.62300
F491        F  0.44278023  0.20112658  0.76262623    -0.22900
F492        F  0.43954768  0.23864246  0.79608325    -0.20200
F493        F  0.47242886  0.20025672  0.80361154    -0.19900
F494        F  0.04370621  0.30741590  0.69977024    -0.20000
F495        F  0.06946700  0.26364575  0.69659088    -0.20300
F496        F  0.07735987  0.29490527  0.73549028    -0.23000
C497        C  0.50412342  0.03131003  0.73084341    -0.05800
C498        C  0.99937750  0.00322738  0.71639450     0.00100
C499        C  0.99624851  0.47426012  0.73473337    -0.08500
C500        C  0.99834596  0.47786870  0.76627340    -0.05800
C501        C  0.00402291  0.00756872  0.78005040     0.00100
C502        C  0.50660700  0.03386916  0.76241978    -0.08400
C503        C  0.51153790  0.06437347  0.77711826     0.62000
H504        H  0.50584134  0.05146118  0.71722980     0.12700
H505        H  0.99635428  0.45858094  0.78110461     0.12700
C506        C  0.99198245  0.44261581  0.72224756     0.62300
F507        F  0.51389827  0.08720248  0.75596830    -0.22900
F508        F  0.53803078  0.06391021  0.79388124    -0.20200
F509        F  0.48742289  0.07091304  0.79599678    -0.19900
F510        F  0.99023376  0.42121955  0.74492610    -0.20000
F511        F  0.01633121  0.43503203  0.70407105    -0.20300
F512        F  0.96533627  0.44108998  0.70584020    -0.23000
C513        C  0.48489027  0.39861738  0.88740606    -0.05800
C514        C  0.50752359  0.41396755  0.87126933     0.00100
C515        C  0.03030821  0.39706631  0.85586574    -0.08500
C516        C  0.02969741  0.36543530  0.85779454    -0.05800
C517        C  0.50693326  0.35010686  0.87400760     0.00100
C518        C  0.48412267  0.36696773  0.88919897    -0.08400
C519        C  0.45943454  0.35199539  0.90792272     0.62000
H520        H  0.46778151  0.41177701  0.89896502     0.12700
H521        H  0.04694610  0.35234833  0.84636107     0.12700
C522        C  0.05468685  0.41209528  0.83680514     0.62300
F523        F  0.44243300  0.37278114  0.92394539    -0.22900
F524        F  0.47235117  0.33240714  0.92855557    -0.20200
F525        F  0.43979606  0.33640035  0.88921370    -0.19900
F526        F  0.07476166  0.42746943  0.85523647    -0.20000
F527        F  0.04144172  0.43190541  0.81660595    -0.20300
F528        F  0.07122706  0.39136472  0.82025082    -0.23000
C529        C  0.02843103  0.11476657  0.85701477    -0.05800
C530        C  0.50615992  0.10030021  0.87490085     0.00100
C531        C  0.48682627  0.11778340  0.89356066    -0.08500
C532        C  0.48978180  0.14934881  0.89306899    -0.05800
C533        C  0.51144846  0.16393303  0.87494820     0.00100
C534        C  0.03143572  0.14632631  0.85650738    -0.08400
C535        C  0.05462859  0.16065157  0.83557340     0.62000
H536        H  0.04310653  0.10105341  0.84304928     0.12700
H537        H  0.47505491  0.16304249  0.90702462     0.12700
C538        C  0.46373775  0.10338215  0.91453971     0.62300
F539        F  0.06847173  0.13957874  0.81709068    -0.22900
F540        F  0.07704695  0.17456327  0.85242184    -0.20200
F541        F  0.04059797  0.18164710  0.81719098    -0.19900
F542        F  0.47773955  0.08191425  0.93239176    -0.20000
F543        F  0.44096350  0.09001176  0.89773217    -0.20300
F544        F  0.45040201  0.12431234  0.93354885    -0.23000
C545        C  0.23623762  0.21955239  0.23346069    -0.05800
C546        C  0.24648770  0.24570256  0.21917342     0.00100
C547        C  0.25491483  0.27100314  0.23655614    -0.08500
C548        C  0.25383966  0.26885105  0.26822550    -0.05800
C549        C  0.24449964  0.24231082  0.28299391     0.00100
C550        C  0.23509337  0.21717886  0.26517498    -0.08400
C551        C  0.22364722  0.18796884  0.27898970     0.62000
H552        H  0.22966716  0.20068826  0.21937453     0.12700
H553        H  0.26076960  0.28799587  0.28170292     0.12700
C554        C  0.26427059  0.30033777  0.22157615     0.62300
F555        F  0.20026698  0.19392504  0.29895607    -0.22900
F556        F  0.24709924  0.17357231  0.29391131    -0.20200
F557        F  0.21260459  0.16831564  0.25729643    -0.19900
F558        F  0.24147565  0.30992542  0.20233691    -0.20000
F559        F  0.29061872  0.29610240  0.20519639    -0.20300
F560        F  0.26951524  0.32291832  0.24251299    -0.23000
C561        C  0.23627684  0.22893096  0.01792251    -0.05800
C562        C  0.25519248  0.24872792  0.03391094     0.00100
C563        C  0.27371970  0.26940793  0.01796674    -0.08500
C564        C  0.27341928  0.26863735  0.98624980    -0.05800
C565        C  0.25439595  0.24896899  0.97027205     0.00100
C566        C  0.23533832  0.22875722  0.98620817    -0.08400
C567        C  0.21459981  0.20667251  0.96997948     0.62000
H568        H  0.22212079  0.21352063  0.03061399     0.12700
H569        H  0.28779801  0.28381653  0.97357368     0.12700
C570        C  0.29268389  0.29304244  0.03413837     0.62300
F571        F  0.20102058  0.18671422  0.98982942    -0.22900
F572        F  0.23107986  0.19006459  0.94925576    -0.20200
F573        F  0.19179872  0.22216268  0.95518982    -0.19900
F574        F  0.31633737  0.27940111  0.04941002    -0.20000
F575        F  0.27480453  0.30872508  0.05443471    -0.20300
F576        F  0.30496946  0.31369647  0.01416742    -0.23000
C577        C  0.26808181  0.01640591  0.23239772    -0.05800
C578        C  0.24685260  0.99845648  0.21700269     0.00100
C579        C  0.22645029  0.48069010  0.23540805    -0.08500
C580        C  0.22629795  0.48401196  0.26698418    -0.05800
C581        C  0.24478776  0.00430070  0.28063512     0.00100
C582        C  0.26740099  0.01979707  0.26400338    -0.08400
C583        C  0.29116955  0.03927904  0.27943500     0.62000
H584        H  0.28496707  0.02835520  0.21930107     0.12700
H585        H  0.20988894  0.47175933  0.28041091     0.12700
C586        C  0.20450348  0.45864534  0.22076334     0.62300
F587        F  0.31308885  0.04917806  0.25936493    -0.22900
F588        F  0.27751662  0.06432211  0.29202813    -0.20200
F589        F  0.30562554  0.02301716  0.30184410    -0.19900
F590        F  0.22014195  0.43931651  0.20183684    -0.20000
F591        F  0.18285373  0.47413649  0.20435662    -0.20300
F592        F  0.18950549  0.44130085  0.24202295    -0.23000
C593        C  0.23331969  0.51146271  0.98252700    -0.05800
C594        C  0.25928019  0.50001512  0.96811820     0.00100
C595        C  0.28320074  0.48806617  0.98602339    -0.08500
C596        C  0.27386643  0.97747653  0.01566084    -0.05800
C597        C  0.25364700  0.49877670  0.03200771     0.00100
C598        C  0.23872752  0.01986718  0.01415710    -0.08400
C599        C  0.22000716  0.04416368  0.02958986     0.62000
H600        H  0.22725462  0.03503935  0.96916840     0.12700
H601        H  0.29777946  0.47850186  0.03154035     0.12700
C602        C  0.31195682  0.47510612  0.97221048     0.62300
F603        F  0.20843542  0.06470953  0.00908224    -0.22900
F604        F  0.23793846  0.05975450  0.04995247    -0.20200
F605        F  0.18405609  0.50226816  0.04087575    -0.19900
F606        F  0.31558921  0.96302459  0.95123988    -0.20000
F607        F  0.30459048  0.45308967  0.95132970    -0.20300
F608        F  0.33061358  0.46208805  0.99373773    -0.23000
C609        C  0.22839623  0.38824215  0.11031115    -0.05800
C610        C  0.25138458  0.40340270  0.12624771     0.00100
C611        C  0.27259492  0.38638153  0.14333451    -0.08500
C612        C  0.27068037  0.35476013  0.14271320    -0.05800
C613        C  0.24788037  0.33954151  0.12658201     0.00100
C614        C  0.22598724  0.35659906  0.11030642    -0.08400
C615        C  0.20030536  0.34183137  0.09272985     0.62000
H616        H  0.21212611  0.40155755  0.09774498     0.12700
H617        H  0.28702700  0.34152802  0.15527235     0.12700
C618        C  0.29655293  0.40125527  0.16306667     0.62300
F619        F  0.18371414  0.36257074  0.07621359    -0.22900
F620        F  0.18059555  0.32785013  0.11256090    -0.20200
F621        F  0.21184924  0.32085773  0.07269200    -0.19900
F622        F  0.28317636  0.42255408  0.18158480    -0.20000
F623        F  0.31822296  0.41488226  0.14511614    -0.20300
F624        F  0.31117833  0.38064295  0.18147043    -0.23000
C625        C  0.27206885  0.10493270  0.10634888    -0.05800
C626        C  0.25071354  0.08968317  0.12424119     0.00100
C627        C  0.23042169  0.10651201  0.14251315    -0.08500
C628        C  0.23238750  0.13812443  0.14219209    -0.05800
C629        C  0.25372325  0.15339906  0.12434351     0.00100
C630        C  0.27371521  0.13660954  0.10568381    -0.08400
C631        C  0.29578233  0.15186899  0.08422481     0.62000
H632        H  0.28729279  0.09169840  0.09246636     0.12700
H633        H  0.21714564  0.15133146  0.15608067     0.12700
C634        C  0.20723010  0.09136156  0.16284667     0.62300
F635        F  0.31016948  0.13133406  0.06553756    -0.22900
F636        F  0.31788021  0.16692049  0.10047216    -0.20200
F637        F  0.28035805  0.17209454  0.06607247    -0.19900
F638        F  0.22139746  0.07031155  0.18106374    -0.20000
F639        F  0.18535044  0.07733200  0.14540542    -0.20300
F640        F  0.19269534  0.11183036  0.18147691    -0.23000
C641        C  0.47995288  0.26342785  0.23236031    -0.05800
C642        C  0.99832024  0.24272832  0.21729189     0.00100
C643        C  0.01370699  0.22035629  0.23425999    -0.08500
C644        C  0.01187146  0.22129480  0.26599421    -0.05800
C645        C  0.99526234  0.24364134  0.28118949     0.00100
C646        C  0.47790367  0.26423603  0.26408285    -0.08400
C647        C  0.45640445  0.28650467  0.27887659     0.62000
H648        H  0.46762052  0.27971501  0.21890481     0.12700
H649        H  0.02386608  0.20466631  0.27929889     0.12700
C650        C  0.03114880  0.19498895  0.21910352     0.62300
F651        F  0.43857516  0.30132630  0.25783170    -0.22900
F652        F  0.47264433  0.30797370  0.29469761    -0.20200
F653        F  0.43724863  0.27135487  0.29834377    -0.19900
F654        F  0.05615243  0.20635366  0.20415705    -0.20000
F655        F  0.01260089  0.18032553  0.19866679    -0.20300
F656        F  0.04130832  0.17389141  0.23979670    -0.23000
C657        C  0.53082223  0.26747365  0.01804405    -0.05800
C658        C  0.50734957  0.25058274  0.03131036     0.00100
C659        C  0.98653783  0.23510888  0.01236704    -0.08500
C660        C  0.98952216  0.23788305  0.98093418    -0.05800
C661        C  0.51230220  0.25538349  0.96770548     0.00100
C662        C  0.53356818  0.27049355  0.98645741    -0.08400
C663        C  0.55834473  0.29050015  0.97351731     0.62000
H664        H  0.54689218  0.27868699  0.03272818     0.12700
H665        H  0.97375238  0.22615520  0.96628824     0.12700
C666        C  0.96178209  0.21490297  0.02503168     0.62300
F667        F  0.57405172  0.30571858  0.99593763    -0.22900
F668        F  0.54568119  0.31172925  0.95442655    -0.20200
F669        F  0.07907966  0.27356408  0.95777445    -0.19900
F670        F  0.43980483  0.23207829  0.03901095    -0.20000
F671        F  0.97404816  0.19503991  0.04578667    -0.20300
F672        F  0.94782425  0.19805075  0.00265080    -0.23000
C673        C  0.47416611  0.48683693  0.23009378    -0.05800
C674        C  0.99814895  0.50196074  0.21542131     0.00100
C675        C  0.01981537  0.01705159  0.23418557    -0.08500
C676        C  0.01601095  0.01782516  0.26575760    -0.05800
C677        C  0.99186358  0.50442773  0.27891345     0.00100
C678        C  0.47044030  0.48805603  0.26160062    -0.08400
C679        C  0.44308056  0.47312355  0.27612059     0.62000
H680        H  0.45834884  0.47389223  0.21657533     0.12700
H681        H  0.03221205  0.02975352  0.27977438     0.12700
C682        C  0.04594472  0.03435969  0.22005120     0.62300
F683        F  0.42259384  0.46284911  0.25472333    -0.22900
F684        F  0.42816074  0.49362325  0.29438404    -0.20200
F685        F  0.45225554  0.44882614  0.29332766    -0.19900
F686        F  0.03511950  0.05326365  0.19766224    -0.20000
F687        F  0.06668085  0.01443918  0.20782148    -0.20300
F688        F  0.06107192  0.05194920  0.24106805    -0.23000
C689        C  0.48028552  0.01384986  0.98102275    -0.05800
C690        C  0.00604913  0.50309658  0.96530894     0.00100
C691        C  0.02990726  0.48980878  0.98229619    -0.08500
C692        C  0.02720435  0.48857342  0.01394047    -0.05800
C693        C  0.00103448  0.99916780  0.02984971     0.00100
C694        C  0.47695300  0.01193995  0.01256730    -0.08400
C695        C  0.44800308  0.02407331  0.02685053     0.62000
H696        H  0.46234536  0.02383574  0.96765254     0.12700
H697        H  0.04541225  0.47889567  0.02718322     0.12700
C698        C  0.05766504  0.47592980  0.96739269     0.62300
F699        F  0.42910033  0.03756318  0.00582579    -0.22900
F700        F  0.95518613  0.04558975  0.04837353    -0.20200
F701        F  0.43192067  0.00075411  0.03996461    -0.19900
F702        F  0.07505686  0.49819145  0.95410873    -0.20000
F703        F  0.54871481  0.45543408  0.94574316    -0.20300
F704        F  0.07586846  0.46094787  0.98798613    -0.23000
C705        C  0.48071220  0.35532072  0.14025105    -0.05800
C706        C  0.00456713  0.34047893  0.12531998     0.00100
C707        C  0.02634107  0.35762531  0.10912501    -0.08500
C708        C  0.02411264  0.38927160  0.10951244    -0.05800
C709        C  0.00037378  0.40431101  0.12442959     0.00100
C710        C  0.47789020  0.38689985  0.13983501    -0.08400
C711        C  0.45125295  0.40142948  0.15605840     0.62000
H712        H  0.46402929  0.34189680  0.15212636     0.12700
H713        H  0.04080301  0.40262879  0.09756966     0.12700
C714        C  0.05095943  0.34277398  0.09028960     0.62300
F715        F  0.43427987  0.38060926  0.17204812    -0.22900
F716        F  0.43218554  0.41488037  0.13522052    -0.20200
F717        F  0.46166941  0.42277267  0.17634290    -0.19900
F718        F  0.03804695  0.32194950  0.07092819    -0.20000
F719        F  0.07164147  0.32856535  0.10895272    -0.20300
F720        F  0.06663431  0.36344141  0.07285043    -0.23000
C721        C  0.02279674  0.13919813  0.10709178    -0.05800
C722        C  0.99899288  0.15432728  0.12174880     0.00100
C723        C  0.47586004  0.13709325  0.13600043    -0.08500
C724        C  0.47793547  0.10548103  0.13558814    -0.05800
C725        C  0.00177969  0.09050508  0.12110405     0.00100
C726        C  0.02443452  0.10756546  0.10601672    -0.08400
C727        C  0.04973532  0.09279047  0.08797556     0.62000
H728        H  0.04017192  0.15250735  0.09612194     0.12700
H729        H  0.46068351  0.09215644  0.14671997     0.12700
C730        C  0.44892689  0.15171933  0.15171284     0.62300
F731        F  0.06610514  0.11359802  0.07134863    -0.22900
F732        F  0.03761176  0.07210722  0.06791660    -0.20200
F733        F  0.06971612  0.07846327  0.10730026    -0.19900
F734        F  0.43059740  0.16556635  0.13050107    -0.20000
F735        F  0.45877648  0.17279054  0.17250502    -0.20300
F736        F  0.43137982  0.13088173  0.16706318    -0.23000
O737        O  0.02623670  0.54265063  0.12180376    -0.73000
O738        O  0.02509405  0.95192678  0.12427288    -0.74000
O739        O  0.02588472  0.99686604  0.07804547    -0.62600
O740        O  0.02500399  0.49860883  0.16821274    -0.71000
O741        O  0.47467746  0.49898145  0.16710877    -0.70500
O742        O  0.47566314  0.99685437  0.07793711    -0.61800
O743        O  0.47472841  0.95238821  0.12430536    -0.74300
O744        O  0.47597054  0.54273020  0.12068957    -0.73100
Cu745      Cu  0.02736558  0.99716010  0.12354603     1.04600
Cu746      Cu  0.47382462  0.49755996  0.12201675     1.04300
C747        C  0.00127804  0.55716399  0.12059374     0.93200
C748        C  0.99979569  0.93785578  0.12500267     0.92400
C749        C  0.00117782  0.49742017  0.06270015     0.84500
C750        C  0.99972110  0.99918832  0.18299048     0.90800
O751        O  0.02452689  0.70140201  0.12645932    -0.73000
O752        O  0.02783779  0.79204886  0.13047684    -0.74000
O753        O  0.02324610  0.74447247  0.17389563    -0.62600
O754        O  0.02978355  0.74856953  0.08350179    -0.71000
O755        O  0.47959382  0.75054626  0.08063953    -0.70500
O756        O  0.47283512  0.74649740  0.17108344    -0.61800
O757        O  0.47752980  0.79362892  0.12773083    -0.74300
O758        O  0.47441211  0.70352708  0.12335976    -0.73100
Cu759      Cu  0.02810887  0.74659881  0.12879711     1.04600
Cu760      Cu  0.47437646  0.74863642  0.12563189     1.04300
C761        C  0.49874422  0.68799861  0.12414978     0.93200
C762        C  0.50309377  0.80712544  0.12908503     0.92400
C763        C  0.49710470  0.74441425  0.18676542     0.84500
C764        C  0.50550467  0.74975698  0.06776129     0.90800
O765        O  0.27467723  0.49680936  0.17144927    -0.73000
O766        O  0.27741044  0.49726582  0.08068115    -0.74000
O767        O  0.27586814  0.54207894  0.12619992    -0.62600
O768        O  0.27834929  0.95192246  0.12575455    -0.71000
O769        O  0.22823365  0.95088492  0.12303489    -0.70500
O770        O  0.22561200  0.54152984  0.12482839    -0.61800
O771        O  0.22921920  0.99637644  0.07767320    -0.74300
O772        O  0.22472086  0.99633850  0.16773353    -0.73100
Cu773      Cu  0.27785204  0.49687457  0.12609405     1.04600
Cu774      Cu  0.22543261  0.99615885  0.12265741     1.04300
C775        C  0.24900168  0.49645531  0.18488125     0.93200
C776        C  0.25481555  0.99726050  0.06429855     0.92400
C777        C  0.25056441  0.55612635  0.12581949     0.84500
C778        C  0.25359634  0.93699093  0.12499775     0.90800
O779        O  0.27534370  0.74651074  0.17302958    -0.73000
O780        O  0.28039845  0.74705083  0.08288848    -0.74000
O781        O  0.27674652  0.79205940  0.12814656    -0.62600
O782        O  0.27851814  0.70132833  0.12745334    -0.71000
O783        O  0.22828048  0.70040201  0.12510402    -0.70500
O784        O  0.22666317  0.79069358  0.12547960    -0.61800
O785        O  0.23019660  0.74567466  0.08001153    -0.74300
O786        O  0.22504053  0.74528779  0.17066941    -0.73100
Cu787      Cu  0.27949393  0.74672973  0.12801842     1.04600
Cu788      Cu  0.22579310  0.74547178  0.12523022     1.04300
C789        C  0.24954943  0.74619457  0.18608789     0.93200
C790        C  0.25615111  0.74670055  0.06715744     0.92400
C791        C  0.25127483  0.80580891  0.12657232     0.84500
C792        C  0.25367231  0.68655661  0.12587548     0.90800
O793        O  0.03158335  0.96233120  0.87146130    -0.73000
O794        O  0.02998995  0.55232781  0.87266859    -0.74000
O795        O  0.03092016  0.50654086  0.91704416    -0.62600
O796        O  0.03045787  0.00833468  0.82693897    -0.71000
O797        O  0.48000845  0.00796363  0.82787780    -0.70500
O798        O  0.48069002  0.50527347  0.91774320    -0.61800
O799        O  0.47963784  0.55210396  0.87405829    -0.74300
O800        O  0.48150995  0.96140951  0.87195850    -0.73100
Cu801      Cu  0.03213249  0.50740317  0.87172979     1.04600
Cu802      Cu  0.47903936  0.00686047  0.87308185     1.04300
C803        C  0.50698194  0.94754818  0.87148773     0.93200
C804        C  0.50472504  0.56660602  0.87417245     0.92400
C805        C  0.50647389  0.00514095  0.93240286     0.84500
C806        C  0.50406220  0.50761900  0.81274751     0.90800
O807        O  0.03678825  0.75794052  0.92192597    -0.73000
O808        O  0.03245694  0.75645091  0.83099479    -0.74000
O809        O  0.03318362  0.80288266  0.87579892    -0.62600
O810        O  0.03586831  0.71201865  0.87696663    -0.71000
O811        O  0.48559953  0.71098522  0.87923780    -0.70500
O812        O  0.48320749  0.80124803  0.87804427    -0.61800
O813        O  0.48235199  0.75527124  0.83358951    -0.74300
O814        O  0.48659321  0.75661156  0.92367120    -0.73100
Cu815      Cu  0.03638138  0.75746470  0.87636082     1.04600
Cu816      Cu  0.48277774  0.75607173  0.87873925     1.04300
C817        C  0.51220186  0.75704139  0.93721569     0.93200
C818        C  0.50661368  0.75497689  0.81792435     0.92400
C819        C  0.50770275  0.81651396  0.87687629     0.84500
C820        C  0.51098169  0.69714653  0.87793462     0.90800
O821        O  0.28160620  0.95582980  0.87147533    -0.73000
O822        O  0.28263877  0.54639341  0.87456416    -0.74000
O823        O  0.28427123  0.50113186  0.91968180    -0.62600
O824        O  0.27933116  0.00291054  0.82789434    -0.71000
O825        O  0.22909461  0.00234617  0.82968675    -0.70500
O826        O  0.23412501  0.49977892  0.92035655    -0.61800
O827        O  0.23250512  0.54586843  0.87615662    -0.74300
O828        O  0.23131900  0.95505752  0.87269918    -0.73100
Cu829      Cu  0.28524224  0.50125790  0.87426284     1.04600
Cu830      Cu  0.22882261  0.00046921  0.87481987     1.04300
C831        C  0.25668802  0.94113707  0.87138282     0.93200
C832        C  0.25747333  0.56054792  0.87592783     0.92400
C833        C  0.25731923  0.99823910  0.93369525     0.84500
C834        C  0.25714314  0.50133168  0.81508672     0.90800
O835        O  0.28006474  0.74999439  0.83171586    -0.73000
O836        O  0.28121635  0.74990555  0.92236237    -0.74000
O837        O  0.27881867  0.70510591  0.87697040    -0.62600
O838        O  0.28268186  0.79538020  0.87691664    -0.71000
O839        O  0.23243993  0.79748789  0.87722044    -0.70500
O840        O  0.22867088  0.70685340  0.87729134    -0.61800
O841        O  0.23091552  0.75158217  0.92260622    -0.74300
O842        O  0.22978850  0.75221082  0.83221188    -0.73100
Cu843      Cu  0.28243964  0.75010439  0.87699935     1.04600
Cu844      Cu  0.22870440  0.75219215  0.87740055     1.04300
C845        C  0.25474844  0.75067905  0.81767228     0.93200
C846        C  0.25609610  0.74984181  0.93675714     0.92400
C847        C  0.25321166  0.69156608  0.87699749     0.84500
C848        C  0.25820936  0.81075962  0.87679798     0.90800
O849        O  0.03682747  0.98119682  0.37241563    -0.73000
O850        O  0.44590386  0.97973051  0.37436060    -0.74000
O851        O  0.49051323  0.97926449  0.32822775    -0.62600
O852        O  0.99201437  0.98109306  0.41877379    -0.71000
O853        O  0.99256744  0.52856276  0.41750740    -0.70500
O854        O  0.49127711  0.52951091  0.32661267    -0.61800
O855        O  0.44672844  0.52750816  0.37301044    -0.74300
O856        O  0.03701597  0.53120936  0.37124560    -0.73100
Cu857      Cu  0.49136405  0.97860138  0.37349239     1.04600
Cu858      Cu  0.99179730  0.53092927  0.37208890     1.04300
C859        C  0.05223001  0.50683567  0.36982404     0.93200
C860        C  0.43289878  0.50234866  0.37436805     0.92400
C861        C  0.99124471  0.50457010  0.31226806     0.84500
C862        C  0.49379781  0.50357532  0.43174847     0.90800
O863        O  0.45213077  0.71391848  0.37708093    -0.73000
O864        O  0.04288459  0.71558759  0.37540482    -0.74000
O865        O  0.99831168  0.71258112  0.42174467    -0.62600
O866        O  0.49630276  0.71708056  0.33099161    -0.71000
O867        O  0.49604695  0.76677360  0.33338103    -0.70500
O868        O  0.99718847  0.76235385  0.42367687    -0.61800
O869        O  0.04197833  0.76543726  0.37816114    -0.74300
O870        O  0.45154658  0.76374804  0.37897156    -0.73100
Cu871      Cu  0.99751408  0.71295470  0.37620041     1.04600
Cu872      Cu  0.49667991  0.76631682  0.37871423     1.04300
C873        C  0.43746141  0.73864032  0.37807880     0.93200
C874        C  0.05675613  0.74079383  0.37641244     0.92400
C875        C  0.49784494  0.73696615  0.43720710     0.84500
C876        C  0.99552454  0.74252073  0.31764280     0.90800
O877        O  0.24039111  0.98100796  0.32884395    -0.73000
O878        O  0.23890654  0.98324322  0.41942512    -0.74000
O879        O  0.19433470  0.98484406  0.37316971    -0.62600
O880        O  0.28459432  0.97921431  0.37501889    -0.71000
O881        O  0.28923509  0.52669533  0.37618911    -0.70500
O882        O  0.19882051  0.53387554  0.37290692    -0.61800
O883        O  0.24257278  0.53075358  0.41991714    -0.74300
O884        O  0.24603604  0.52958523  0.32914684    -0.73100
Cu885      Cu  0.23936191  0.98037111  0.37416638     1.04600
Cu886      Cu  0.24424825  0.53200121  0.37453347     1.04300
C887        C  0.24503479  0.50439307  0.31524243     0.93200
C888        C  0.24090653  0.50601952  0.43450592     0.92400
C889        C  0.18276060  0.50997050  0.37264904     0.84500
C890        C  0.30177569  0.50076236  0.37663707     0.90800
O891        O  0.29182841  0.72031464  0.37622607    -0.73000
O892        O  0.20137649  0.72141777  0.37756310    -0.74000
O893        O  0.24591513  0.71990810  0.33178949    -0.62600
O894        O  0.24755082  0.72175649  0.42225194    -0.71000
O895        O  0.24834060  0.77158219  0.42171107    -0.70500
O896        O  0.24621718  0.76967288  0.33077913    -0.61800
O897        O  0.20182865  0.77136426  0.37721020    -0.74300
O898        O  0.29257545  0.77014929  0.37532058    -0.73100
Cu899      Cu  0.24661520  0.71915660  0.37701763     1.04600
Cu900      Cu  0.24724117  0.77247069  0.37621476     1.04300
C901        C  0.30660185  0.74503105  0.37538798     0.93200
C902        C  0.18729136  0.74652427  0.37763367     0.92400
C903        C  0.24574026  0.74442740  0.31682650     0.84500
C904        C  0.24864091  0.74678197  0.43638137     0.90800
O905        O  0.99553750  0.97862966  0.66783637    -0.73000
O906        O  0.99014534  0.97924142  0.57734927    -0.74000
O907        O  0.03795889  0.97837189  0.62048690    -0.62600
O908        O  0.44757797  0.97916255  0.62540555    -0.71000
O909        O  0.44721668  0.52387458  0.62333147    -0.70500
O910        O  0.03822598  0.52481975  0.62138217    -0.61800
O911        O  0.49164175  0.52416176  0.57695276    -0.74300
O912        O  0.49406760  0.52458670  0.66766460    -0.73100
Cu913      Cu  0.99274952  0.97712351  0.62268620     1.04600
Cu914      Cu  0.49270773  0.52612581  0.62228134     1.04300
C915        C  0.99544534  0.49975048  0.68222950     0.93200
C916        C  0.49094743  0.49915743  0.56265919     0.92400
C917        C  0.05257201  0.49983958  0.62176835     0.84500
C918        C  0.43320786  0.49872590  0.62455196     0.90800
O919        O  0.49992768  0.71892661  0.58362922    -0.73000
O920        O  0.50214418  0.72346187  0.67426848    -0.74000
O921        O  0.45555244  0.72172496  0.62961401    -0.62600
O922        O  0.04647527  0.72114151  0.62800855    -0.71000
O923        O  0.04610085  0.77097553  0.62553870    -0.70500
O924        O  0.45600387  0.77153950  0.62741197    -0.61800
O925        O  0.00265473  0.77334884  0.67176354    -0.74300
O926        O  0.00000140  0.76877155  0.58136725    -0.73100
Cu927      Cu  0.50100077  0.71952134  0.62902603     1.04600
Cu928      Cu  0.00118870  0.77286346  0.62646031     1.04300
C929        C  0.49915521  0.74319484  0.56815060     0.93200
C930        C  0.00336154  0.74910278  0.68721538     0.92400
C931        C  0.44138701  0.74674993  0.62811935     0.84500
C932        C  0.06060793  0.74620877  0.62629225     0.90800
O933        O  0.19774080  0.97957648  0.62412076    -0.73000
O934        O  0.28880105  0.97983350  0.62546997    -0.74000
O935        O  0.24279203  0.97995166  0.66999996    -0.62600
O936        O  0.24369111  0.97916516  0.57956312    -0.71000
O937        O  0.24263151  0.52440273  0.58013653    -0.70500
O938        O  0.24469086  0.52421638  0.67082635    -0.61800
O939        O  0.28861830  0.52382394  0.62454498    -0.74300
O940        O  0.19826369  0.52546841  0.62585491    -0.73100
Cu941      Cu  0.24325635  0.97787799  0.62484030     1.04600
Cu942      Cu  0.24354012  0.52619080  0.62541730     1.04300
C943        C  0.18334255  0.50089948  0.62502231     0.93200
C944        C  0.30271495  0.49878851  0.62433985     0.92400
C945        C  0.24447136  0.49914290  0.68498763     0.84500
C946        C  0.24209072  0.49947622  0.56566860     0.90800
O947        O  0.24919663  0.77547419  0.58216645    -0.73000
O948        O  0.24983399  0.77557175  0.67252619    -0.74000
O949        O  0.29511976  0.77715072  0.62704144    -0.62600
O950        O  0.20434971  0.77317516  0.62777520    -0.71000
O951        O  0.20661753  0.72330156  0.62808108    -0.70500
O952        O  0.29675316  0.72734322  0.62699898    -0.61800
O953        O  0.25206368  0.72575936  0.67292478    -0.74300
O954        O  0.25105833  0.72569317  0.58187529    -0.73100
Cu955      Cu  0.24957906  0.77707644  0.62737100     1.04600
Cu956      Cu  0.25173986  0.72378332  0.62745176     1.04300
C957        C  0.24966876  0.75071104  0.56759181     0.93200
C958        C  0.25061916  0.75083167  0.68709374     0.92400
C959        C  0.31035525  0.75271357  0.62703275     0.84500
C960        C  0.19119061  0.74753853  0.62835476     0.90800
C961        C  0.39342994  0.77193234  0.64155726    -0.05800
C962        C  0.40784440  0.74757266  0.62729511     0.00100
C963        C  0.39015806  0.72594924  0.61158354    -0.08500
C964        C  0.35847133  0.72909094  0.61174138    -0.05800
C965        C  0.34396418  0.75304630  0.62661447     0.00100
C966        C  0.36171127  0.77517853  0.64156829    -0.08400
C967        C  0.34757695  0.80163180  0.65821409     0.62000
H968        H  0.40737311  0.78841885  0.65308081     0.12700
H969        H  0.34460680  0.71259766  0.60013031     0.12700
C970        C  0.40434101  0.70006558  0.59405824     0.62300
F971        F  0.36910629  0.81868438  0.67330575    -0.22900
F972        F  0.32698215  0.79126134  0.67936413    -0.20200
F973        F  0.33303009  0.82034698  0.63787709    -0.19900
F974        F  0.41770034  0.67997954  0.61386453    -0.20000
F975        F  0.42594635  0.71100010  0.57422986    -0.20300
F976        F  0.38301928  0.68437389  0.57727562    -0.23000
C977        C  0.10933127  0.72630701  0.64479326    -0.05800
C978        C  0.09402014  0.74663402  0.62591792     0.00100
C979        C  0.11077018  0.76695639  0.60770155    -0.08500
C980        C  0.14249728  0.76639101  0.60948145    -0.05800
C981        C  0.15782455  0.74615052  0.62833896     0.00100
C982        C  0.14114371  0.72582995  0.64661594    -0.08400
C983        C  0.15653169  0.70456315  0.66876303     0.62000
H984        H  0.09605609  0.71108458  0.65858278     0.12700
H985        H  0.15570734  0.78190751  0.59601945     0.12700
C986        C  0.09557154  0.78880460  0.58598995     0.62300
F987        F  0.13577506  0.69048078  0.68750321    -0.22900
F988        F  0.17656001  0.72037655  0.68687166    -0.20200
F989        F  0.17210795  0.68247012  0.65318126    -0.19900
F990        F  0.08103719  0.81125538  0.60207009    -0.20000
F991        F  0.07474338  0.77368395  0.56814397    -0.20300
F992        F  0.11634936  0.80245019  0.56695221    -0.23000
C993        C  0.35138372  0.98939118  0.64758985    -0.05800
C994        C  0.33606714  0.49882347  0.62368735     0.00100
C995        C  0.35259659  0.51356726  0.60058319    -0.08500
C996        C  0.38443335  0.51292444  0.60174723    -0.05800
C997        C  0.39984703  0.49840291  0.62527377     0.00100
C998        C  0.38324295  0.98876264  0.64921478    -0.08400
C999        C  0.39874406  0.97236867  0.67508640     0.62000
H1000       H  0.33794991  0.97756315  0.66428094     0.12700
H1001       H  0.39764583  0.52369828  0.58418520     0.12700
C1002       C  0.33675577  0.52930654  0.57449389     0.62300
F1003       F  0.37807263  0.96211217  0.69626357    -0.22900
F1004       F  0.41843234  0.49197316  0.68882762    -0.20200
F1005       F  0.41447710  0.94777930  0.66412536    -0.19900
F1006       F  0.32078718  0.55392344  0.58507421    -0.20000
F1007       F  0.31826939  0.01821738  0.56185275    -0.20300
F1008       F  0.35717045  0.53947334  0.55304347    -0.23000
C1009       C  0.10179812  0.51832327  0.60287021    -0.05800
C1010       C  0.08599503  0.49984100  0.62312378     0.00100
C1011       C  0.10263460  0.98445671  0.64242439    -0.08500
C1012       C  0.13446348  0.98562541  0.64186823    -0.05800
C1013       C  0.14990459  0.50166913  0.62386501     0.00100
C1014       C  0.13368454  0.51957988  0.60277681    -0.08400
C1015       C  0.14981084  0.53909334  0.57959545     0.62000
H1016       H  0.08885972  0.53159836  0.58687968     0.12700
H1017       H  0.14753270  0.97193561  0.65736701     0.12700
C1018       C  0.08682981  0.96506787  0.66592816     0.62300
F1019       F  0.12970663  0.55175595  0.55917147    -0.22900
F1020       F  0.17045230  0.02499478  0.56193466    -0.20200
F1021       F  0.16496113  0.56230870  0.59394668    -0.19900
F1022       F  0.07145826  0.94178449  0.65193057    -0.20000
F1023       F  0.06593074  0.48256338  0.68427827    -0.20300
F1024       F  0.10719820  0.95251869  0.68615605    -0.23000
C1025       C  0.23375621  0.77024929  0.48486649    -0.05800
C1026       C  0.24965425  0.74725712  0.46995505     0.00100
C1027       C  0.26609173  0.72583672  0.48728952    -0.08500
C1028       C  0.26543785  0.72803286  0.51900646    -0.05800
C1029       C  0.24921114  0.75078409  0.53396448     0.00100
C1030       C  0.23286514  0.77230067  0.51659486    -0.08400
C1031       C  0.21349424  0.79662980  0.53113957     0.62000
H1032       H  0.22151001  0.78650414  0.47131491     0.12700
H1033       H  0.27785895  0.71186995  0.53251709     0.12700
C1034       C  0.28502709  0.70123073  0.47265274     0.62300
F1035       F  0.19630230  0.81212325  0.51005651    -0.22900
F1036       F  0.23179612  0.81731250  0.54576479    -0.20200
F1037       F  0.19371846  0.78371372  0.55160284    -0.19900
F1038       F  0.30447217  0.71371897  0.45158505    -0.20000
F1039       F  0.26625525  0.68050935  0.45869231    -0.20300
F1040       F  0.30251404  0.68588314  0.49359470    -0.23000
C1041       C  0.25521150  0.52475918  0.51772587    -0.05800
C1042       C  0.24168510  0.49994362  0.53205499     0.00100
C1043       C  0.22930243  0.98033849  0.51364086    -0.08500
C1044       C  0.22876530  0.98335712  0.48200193    -0.05800
C1045       C  0.24108945  0.50561324  0.46816297     0.00100
C1046       C  0.25560933  0.52792895  0.48611517    -0.08400
C1047       C  0.27220914  0.55464208  0.47239897     0.62000
H1048       H  0.26593514  0.54175135  0.53167038     0.12700
H1049       H  0.21860779  0.96573943  0.46844122     0.12700
C1050       C  0.21560909  0.95224355  0.52780028     0.62300
F1051       F  0.28781460  0.57112468  0.49397217    -0.22900
F1052       F  0.25159773  0.57372885  0.45868517    -0.20200
F1053       F  0.29164276  0.04967734  0.44991298    -0.19900
F1054       F  0.19858168  0.43198262  0.50620217    -0.20000
F1055       F  0.19399283  0.96022564  0.54898512    -0.20300
F1056       F  0.23820244  0.93543380  0.54144235    -0.23000
C1057       C  0.98183630  0.75981610  0.48532075    -0.05800
C1058       C  0.49737403  0.73636989  0.47081368     0.00100
C1059       C  0.51273398  0.71446687  0.48851661    -0.08500
C1060       C  0.51260300  0.71760382  0.52020792    -0.05800
C1061       C  0.49760945  0.74152575  0.53466874     0.00100
C1062       C  0.98134907  0.76274103  0.51692101    -0.08400
C1063       C  0.96285328  0.78800775  0.53102043     0.62000
H1064       H  0.96989816  0.77614067  0.47157185     0.12700
H1065       H  0.52465082  0.70144927  0.53405913     0.12700
C1066       C  0.52976321  0.68828691  0.47433705     0.62300
F1067       F  0.94460871  0.80229426  0.50996099    -0.22900
F1068       F  0.98208156  0.80936232  0.54331266    -0.20200
F1069       F  0.94410655  0.77660304  0.55331918    -0.19900
F1070       F  0.55070878  0.69893250  0.45367230    -0.20000
F1071       F  0.50948181  0.66928560  0.45998365    -0.20300
F1072       F  0.54530492  0.67149242  0.49568088    -0.23000
C1073       C  0.39003036  0.76259077  0.36159835    -0.05800
C1074       C  0.40395728  0.73880725  0.37720754     0.00100
C1075       C  0.38577984  0.71694724  0.39191603    -0.08500
C1076       C  0.35410647  0.71997995  0.39045831    -0.05800
C1077       C  0.34015618  0.74407132  0.37527635     0.00100
C1078       C  0.35838466  0.76572059  0.36025210    -0.08400
C1079       C  0.34494795  0.79188970  0.34259663     0.62000
H1080       H  0.40432257  0.77898705  0.35042862     0.12700
H1081       H  0.33986024  0.70354684  0.40161352     0.12700
C1082       C  0.39939774  0.69108281  0.40988132     0.62300
F1083       F  0.36675781  0.80697086  0.32592318    -0.22900
F1084       F  0.33207231  0.81230997  0.36238507    -0.15400
F1085       F  0.32314032  0.78154707  0.32261572    -0.19900
F1086       F  0.41978969  0.70213093  0.43093816    -0.20000
F1087       F  0.41406783  0.67138822  0.39060445    -0.20300
F1088       F  0.37745493  0.67492288  0.42531297    -0.23000
C1089       C  0.10460056  0.76116540  0.39662678    -0.05800
C1090       C  0.09017961  0.74175879  0.37609114     0.00100
C1091       C  0.10774260  0.72472938  0.35544417    -0.08500
C1092       C  0.13946253  0.72723760  0.35671087    -0.05800
C1093       C  0.15388335  0.74641454  0.37740313     0.00100
C1094       C  0.13635163  0.76376498  0.39777493    -0.08400
C1095       C  0.15099388  0.78411099  0.42123104     0.62000
H1096       H  0.09068770  0.77411220  0.41205625     0.12700
H1097       H  0.15337947  0.71414420  0.34143835     0.12700
C1098       C  0.09326436  0.70452721  0.33174455     0.62300
F1099       F  0.12987931  0.79574595  0.44122522    -0.22900
F1100       F  0.16518776  0.80799933  0.40707531    -0.20200
F1101       F  0.17210801  0.76801752  0.43778635    -0.19900
F1102       F  0.07120360  0.72024223  0.31604705    -0.20000
F1103       F  0.08030254  0.67977515  0.34556922    -0.20300
F1104       F  0.11432513  0.69422178  0.31096659    -0.23000
C1105       C  0.46890521  0.99069589  0.48089559    -0.05800
C1106       C  0.49341875  0.50308579  0.46527709     0.00100
C1107       C  0.01149618  0.52264412  0.48304607    -0.08500
C1108       C  0.00983976  0.52044556  0.51469854    -0.05800
C1109       C  0.49095258  0.49942475  0.52912134     0.00100
C1110       C  0.46719832  0.98962867  0.51264440    -0.08400
C1111       C  0.44082328  0.97354754  0.52770635     0.62000
H1112       H  0.45203588  0.97920165  0.46730018     0.12700
H1113       H  0.02363749  0.53511336  0.52863731     0.12700
C1114       C  0.03334910  0.54495531  0.46886704     0.62300
F1115       F  0.42000316  0.96295917  0.50679195    -0.22900
F1116       F  0.42590996  0.99323770  0.54681795    -0.20200
F1117       F  0.45127971  0.94921315  0.54412512    -0.19900
F1118       F  0.01738209  0.56707447  0.45371008    -0.20000
F1119       F  0.05219251  0.53005707  0.44889554    -0.20300
F1120       F  0.05142714  0.55896542  0.49026729    -0.23000
C1121       C  0.38266790  0.98085006  0.36064384    -0.05800
C1122       C  0.39937464  0.50170109  0.37657849     0.00100
C1123       C  0.38258030  0.52396119  0.39242901    -0.08500
C1124       C  0.35080998  0.52214035  0.39227260    -0.05800
C1125       C  0.33531481  0.49884345  0.37740809     0.00100
C1126       C  0.35082379  0.97897538  0.36019218    -0.08400
C1127       C  0.33570434  0.95309533  0.34340672     0.62000
H1128       H  0.39603241  0.96384194  0.34924328     0.12700
H1129       H  0.33765878  0.53928483  0.40370911     0.12700
C1130       C  0.39772606  0.54934537  0.40996548     0.62300
F1131       F  0.35649186  0.93594390  0.32748444    -0.22900
F1132       F  0.32161232  0.43187405  0.36718767    -0.20200
F1133       F  0.31474478  0.96408227  0.32291447    -0.19900
F1134       F  0.41075872  0.56960174  0.39013215    -0.20000
F1135       F  0.41728102  0.04128752  0.42769691    -0.20300
F1136       F  0.37718501  0.56505057  0.42762705    -0.23000
C1137       C  0.10018852  0.52776873  0.38932819    -0.05800
C1138       C  0.08563963  0.50847113  0.36879233     0.00100
C1139       C  0.10151583  0.98883066  0.35123947    -0.08500
C1140       C  0.13325115  0.99124298  0.35216653    -0.05800
C1141       C  0.14942131  0.51178397  0.37098075     0.00100
C1142       C  0.13197427  0.52965651  0.39099047    -0.08400
C1143       C  0.14666880  0.54968649  0.41470179     0.62000
H1144       H  0.08636831  0.54107268  0.40447155     0.12700
H1145       H  0.14701336  0.97691130  0.33786388     0.12700
C1146       C  0.08680041  0.96704626  0.32915755     0.62300
F1147       F  0.12537209  0.56275983  0.43359510    -0.22900
F1148       F  0.16262773  0.57258321  0.40076191    -0.20200
F1149       F  0.16625124  0.53288397  0.43238491    -0.19900
F1150       F  0.06490617  0.98178230  0.31232440    -0.20000
F1151       F  0.07358536  0.94353931  0.34480386    -0.20300
F1152       F  0.10772257  0.95497405  0.30921689    -0.23000
C1153       C  0.26880775  0.72985917  0.73549840    -0.05800
C1154       C  0.25055257  0.75109076  0.72058695     0.00100
C1155       C  0.23275016  0.77148119  0.73786597    -0.08500
C1156       C  0.23484290  0.77041737  0.76955409    -0.05800
C1157       C  0.25404644  0.75000614  0.78431830     0.00100
C1158       C  0.27094843  0.72893644  0.76718117    -0.08400
C1159       C  0.29065674  0.70515982  0.78215461     0.62000
H1160       H  0.28200774  0.71429584  0.72201719     0.12700
H1161       H  0.22182329  0.78601472  0.78318265     0.12700
C1162       C  0.21113301  0.79389452  0.72330464     0.62300
F1163       F  0.30123256  0.68420799  0.76153018    -0.22900
F1164       F  0.27409326  0.68987918  0.80381486    -0.20200
F1165       F  0.31550284  0.71867699  0.79559290    -0.19900
F1166       F  0.19238936  0.77930571  0.70294004    -0.20000
F1167       F  0.22743862  0.81599344  0.70850509    -0.20300
F1168       F  0.19281515  0.80791999  0.74447083    -0.23000
C1169       C  0.22855754  0.98790553  0.76711686    -0.05800
C1170       C  0.25556425  0.50057693  0.78157185     0.00100
C1171       C  0.27658064  0.51558461  0.76246070    -0.08500
C1172       C  0.27173376  0.51475106  0.73101737    -0.05800
C1173       C  0.24729861  0.49899020  0.71823272     0.00100
C1174       C  0.22446052  0.98784113  0.73563600    -0.08400
C1175       C  0.19797737  0.97065089  0.72196594     0.62000
H1176       H  0.21359978  0.97463924  0.78122555     0.12700
H1177       H  0.28737321  0.52607106  0.71594909     0.12700
C1178       C  0.30362751  0.53288218  0.77486539     0.62300
F1179       F  0.17899365  0.95894402  0.74393498    -0.22900
F1180       F  0.20850822  0.94694267  0.70468322    -0.20200
F1181       F  0.18099257  0.98980086  0.70404906    -0.19900
F1182       F  0.32376859  0.51315416  0.78835803    -0.20000
F1183       F  0.29395782  0.55389489  0.79583314    -0.20300
F1184       F  0.31913750  0.54808783  0.75235411    -0.23000
C1185       C  0.27792839  0.89335692  0.89068715    -0.05800
C1186       C  0.25755036  0.90774240  0.87104508     0.00100
C1187       C  0.23922457  0.89009315  0.85156050    -0.08500
C1188       C  0.23993882  0.85852347  0.85453022    -0.05800
C1189       C  0.25943245  0.84413520  0.87510207     0.00100
C1190       C  0.27935021  0.86178635  0.89306857    -0.08400
C1191       C  0.30154457  0.84761516  0.91515576     0.62000
H1192       H  0.29278951  0.90718769  0.90435679     0.12700
H1193       H  0.22555791  0.84469160  0.84030431     0.12700
C1194       C  0.22057515  0.90432829  0.82647976     0.62300
F1195       F  0.31597232  0.86901125  0.93284486    -0.22900
F1196       F  0.32361569  0.83199054  0.89945894    -0.20200
F1197       F  0.28632901  0.82814449  0.93422689    -0.19900
F1198       F  0.23877987  0.92334269  0.80962197    -0.20000
F1199       F  0.19674124  0.92052839  0.83857047    -0.20300
F1200       F  0.20864677  0.88288924  0.80708390    -0.23000
C1201       C  0.23145398  0.60885582  0.86474396    -0.05800
C1202       C  0.25692286  0.59411253  0.87692342     0.00100
C1203       C  0.28047907  0.61163962  0.89009958    -0.08500
C1204       C  0.27781156  0.64319299  0.88985573    -0.05800
C1205       C  0.25264437  0.65798800  0.87719169     0.00100
C1206       C  0.22881120  0.64048461  0.86449335    -0.08400
C1207       C  0.20101568  0.65476180  0.85000797     0.62000
H1208       H  0.21357261  0.59525543  0.85496118     0.12700
H1209       H  0.29569868  0.65673596  0.89970655     0.12700
C1210       C  0.30816813  0.59750068  0.90496926     0.62300
F1211       F  0.18242651  0.63357687  0.83640151    -0.22900
F1212       F  0.20989152  0.67502799  0.82799333    -0.20200
F1213       F  0.18403973  0.66943285  0.87176953    -0.19900
F1214       F  0.32608174  0.58382866  0.88330612    -0.20000
F1215       F  0.29911642  0.57645159  0.92616319    -0.20300
F1216       F  0.32592307  0.61864972  0.91969957    -0.23000
C1217       C  0.48214448  0.73638371  0.73706560    -0.05800
C1218       C  0.00503127  0.75062738  0.72047838     0.00100
C1219       C  0.02896503  0.76542327  0.73582604    -0.08500
C1220       C  0.02847337  0.76629471  0.76759724    -0.05800
C1221       C  0.00500919  0.75283595  0.78435117     0.00100
C1222       C  0.48151824  0.73722686  0.76883876    -0.08400
C1223       C  0.45608413  0.72090894  0.78528814     0.62000
H1224       H  0.46433114  0.72492560  0.72469430     0.12700
H1225       H  0.04644573  0.77782245  0.77964431     0.12700
C1226       C  0.05548253  0.77919556  0.71880305     0.62300
F1227       F  0.43843739  0.70392807  0.76576823    -0.22900
F1228       F  0.43726038  0.74160733  0.79918356    -0.20200
F1229       F  0.46809861  0.70156156  0.80667270    -0.19900
F1230       F  0.04551461  0.80281971  0.70108877    -0.20000
F1231       F  0.06877386  0.75759173  0.70060011    -0.20300
F1232       F  0.07752936  0.79019444  0.73820206    -0.23000
C1233       C  0.50320601  0.52867952  0.72986396    -0.05800
C1234       C  0.99817988  0.50038252  0.71597874     0.00100
C1235       C  0.99763869  0.97669844  0.73459556    -0.08500
C1236       C  0.99965329  0.97966025  0.76619477    -0.05800
C1237       C  0.00309992  0.50602036  0.77953684     0.00100
C1238       C  0.50589819  0.53187941  0.76136560    -0.08400
C1239       C  0.51141513  0.56259483  0.77539221     0.62000
H1240       H  0.50514466  0.54851486  0.71582023     0.12700
H1241       H  0.99788087  0.96004521  0.78061826     0.12700
C1242       C  0.99375263  0.94525837  0.72146551     0.62300
F1243       F  0.51328528  0.58503914  0.75378801    -0.22900
F1244       F  0.53837502  0.56223619  0.79141423    -0.20200
F1245       F  0.48789980  0.56962003  0.79483740    -0.19900
F1246       F  0.99232128  0.92338860  0.74370644    -0.20000
F1247       F  0.01819729  0.93837618  0.70313551    -0.20300
F1248       F  0.96709247  0.94368777  0.70504650    -0.23000
C1249       C  0.48475042  0.89904152  0.88804310    -0.05800
C1250       C  0.50770902  0.91399368  0.87196814     0.00100
C1251       C  0.03023408  0.89659679  0.85711929    -0.08500
C1252       C  0.02927768  0.86498114  0.85955343    -0.05800
C1253       C  0.50661301  0.85009141  0.87588358     0.00100
C1254       C  0.48377128  0.86742522  0.89048702    -0.08400
C1255       C  0.45889690  0.85303147  0.90940546     0.62000
H1256       H  0.46759939  0.91251243  0.89916592     0.12700
H1257       H  0.04649021  0.85156136  0.84846384     0.12700
C1258       C  0.05504068  0.91107055  0.83817472     0.62300
F1259       F  0.44181329  0.87428760  0.92470850    -0.22900
F1260       F  0.47162412  0.83401216  0.93067839    -0.20200
F1261       F  0.43937099  0.83696097  0.89099218    -0.19900
F1262       F  0.07494361  0.92662050  0.85663935    -0.20000
F1263       F  0.04229069  0.93060780  0.81739878    -0.20300
F1264       F  0.07168766  0.88990113  0.82229110    -0.23000
C1265       C  0.02802592  0.61482176  0.85888701    -0.05800
C1266       C  0.50534328  0.60003767  0.87563493     0.00100
C1267       C  0.48579690  0.61714090  0.89444651    -0.08500
C1268       C  0.48881021  0.64871728  0.89469539    -0.05800
C1269       C  0.51106686  0.66364277  0.87756758     0.00100
C1270       C  0.03148214  0.64631839  0.85960737    -0.08400
C1271       C  0.05628780  0.66082893  0.84073313     0.62000
H1272       H  0.04305512  0.60138082  0.84501511     0.12700
H1273       H  0.47372086  0.66213431  0.90853555     0.12700
C1274       C  0.46253862  0.60231564  0.91495010     0.62300
F1275       F  0.07124377  0.64003353  0.82280198    -0.22900
F1276       F  0.07758466  0.67401013  0.85952055    -0.20200
F1277       F  0.04388526  0.68242023  0.82190090    -0.19900
F1278       F  0.47641953  0.58049904  0.93247105    -0.20000
F1279       F  0.43988234  0.58928035  0.89772945    -0.20300
F1280       F  0.44907680  0.62285507  0.93429986    -0.23000
C1281       C  0.23421416  0.72219600  0.23388613    -0.05800
C1282       C  0.24812485  0.74651842  0.21934646     0.00100
C1283       C  0.26048583  0.77035595  0.23659030    -0.08500
C1284       C  0.25897842  0.76868268  0.26825798    -0.05800
C1285       C  0.24578102  0.74396258  0.28315905     0.00100
C1286       C  0.23300845  0.72018545  0.26561919    -0.08400
C1287       C  0.21793007  0.69286977  0.27985568     0.62000
H1288       H  0.22491037  0.70432974  0.22000649     0.12700
H1289       H  0.26861765  0.78668432  0.28169512     0.12700
C1290       C  0.27436887  0.79785928  0.22156737     0.62300
F1291       F  0.19589117  0.70203002  0.30008759    -0.22900
F1292       F  0.23943658  0.67562670  0.29463880    -0.20200
F1293       F  0.20404181  0.67469201  0.25849434    -0.19900
F1294       F  0.25350795  0.81061389  0.20202200    -0.20000
F1295       F  0.30001816  0.78970711  0.20558908    -0.20300
F1296       F  0.28274794  0.81954052  0.24245319    -0.23000
C1297       C  0.23866354  0.72755231  0.01784689    -0.05800
C1298       C  0.25788206  0.74709409  0.03380483     0.00100
C1299       C  0.27734132  0.76685441  0.01770662    -0.08500
C1300       C  0.27619135  0.76675549  0.98595670    -0.05800
C1301       C  0.25629215  0.74787964  0.97006502     0.00100
C1302       C  0.23777446  0.72724470  0.98610914    -0.08400
C1303       C  0.21796357  0.70428964  0.96994533     0.62000
H1304       H  0.22431474  0.71233965  0.03056962     0.12700
H1305       H  0.29063307  0.78180799  0.97318110     0.12700
C1306       C  0.29848218  0.78866772  0.03377230     0.62300
F1307       F  0.20582124  0.68343321  0.98979235    -0.22900
F1308       F  0.23501642  0.68873643  0.94885210    -0.20200
F1309       F  0.19417108  0.71866794  0.95559950    -0.19900
F1310       F  0.32088994  0.77288046  0.04884700    -0.20000
F1311       F  0.28223647  0.80586535  0.05419984    -0.20300
F1312       F  0.31258509  0.80810220  0.01376574    -0.23000
C1313       C  0.26885118  0.51593609  0.23332771    -0.05800
C1314       C  0.24780086  0.49746111  0.21831137     0.00100
C1315       C  0.22446199  0.98261725  0.23377224    -0.08500
C1316       C  0.22407884  0.98572526  0.26540743    -0.05800
C1317       C  0.24669426  0.50319394  0.28189596     0.00100
C1318       C  0.26880908  0.51906932  0.26496858    -0.08400
C1319       C  0.29290143  0.53837969  0.28011744     0.62000
H1320       H  0.28516231  0.52834101  0.21993532     0.12700
H1321       H  0.20714537  0.97395491  0.27862084     0.12700
C1322       C  0.20135502  0.96204709  0.21872772     0.62300
F1323       F  0.31424090  0.54871478  0.25964789    -0.22900
F1324       F  0.27955468  0.56315419  0.29353718    -0.20200
F1325       F  0.30799380  0.52171036  0.30182257    -0.19900
F1326       F  0.21593062  0.94197455  0.19973269    -0.20000
F1327       F  0.18084359  0.97901754  0.20232436    -0.20300
F1328       F  0.18509593  0.94545757  0.23967200    -0.23000
C1329       C  0.24009474  0.01896754  0.98242416    -0.05800
C1330       C  0.25790032  0.99771008  0.96712667     0.00100
C1331       C  0.27486758  0.97633732  0.98387984    -0.08500
C1332       C  0.27982850  0.48774394  0.01764511    -0.05800
C1333       C  0.25575814  0.99850741  0.03092246     0.00100
C1334       C  0.22995710  0.51122808  0.01409835    -0.08400
C1335       C  0.20134225  0.52473288  0.02778651     0.62000
H1336       H  0.21536115  0.52073813  0.96866174     0.12700
H1337       H  0.28654145  0.96129193  0.02892904     0.12700
C1338       C  0.29221971  0.95123539  0.96834190     0.62300
F1339       F  0.18344627  0.53883697  0.00630549    -0.22900
F1340       F  0.20899090  0.54604817  0.04930191    -0.20200
F1341       F  0.19578156  0.03133878  0.04465327    -0.19900
F1342       F  0.32828840  0.49776963  0.95828028    -0.20000
F1343       F  0.27262558  0.93534290  0.94985941    -0.20300
F1344       F  0.30471665  0.93124771  0.98886313    -0.23000
C1345       C  0.23009397  0.88813972  0.11140370    -0.05800
C1346       C  0.25387115  0.90340567  0.12600566     0.00100
C1347       C  0.27609081  0.88638041  0.14185639    -0.08500
C1348       C  0.27426852  0.85470710  0.14120905    -0.05800
C1349       C  0.25062355  0.83942171  0.12635085     0.00100
C1350       C  0.22774153  0.85651917  0.11149851    -0.08400
C1351       C  0.20100206  0.84187039  0.09545353     0.62000
H1352       H  0.21309689  0.90137570  0.09975516     0.12700
H1353       H  0.29134784  0.84149799  0.15278558     0.12700
C1354       C  0.30109747  0.90122550  0.16029337     0.62300
F1355       F  0.18325734  0.86272222  0.08032958    -0.22900
F1356       F  0.18265116  0.82759012  0.11634175    -0.20200
F1357       F  0.21132891  0.82123497  0.07441919    -0.19900
F1358       F  0.28873078  0.92236196  0.17968412    -0.20000
F1359       F  0.32166953  0.91502080  0.14122427    -0.20300
F1360       F  0.31683072  0.88056144  0.17772079    -0.23000
C1361       C  0.27187534  0.60446686  0.10798634    -0.05800
C1362       C  0.25047270  0.58952275  0.12607442     0.00100
C1363       C  0.23035410  0.60662772  0.14428734    -0.08500
C1364       C  0.23239798  0.63823509  0.14352636    -0.05800
C1365       C  0.25384590  0.65317303  0.12551521     0.00100
C1366       C  0.27376440  0.63610072  0.10707673    -0.08400
C1367       C  0.29610562  0.65105364  0.08567992     0.62000
H1368       H  0.28699848  0.59102799  0.09419334     0.12700
H1369       H  0.21724582  0.65168447  0.15727940     0.12700
C1370       C  0.20743972  0.59177245  0.16515714     0.62300
F1371       F  0.31026895  0.63032634  0.06705004    -0.22900
F1372       F  0.31835229  0.66579355  0.10201978    -0.20200
F1373       F  0.28103907  0.67149652  0.06746984    -0.19900
F1374       F  0.22189706  0.57101602  0.18349300    -0.20000
F1375       F  0.18531788  0.57744824  0.14827212    -0.20300
F1376       F  0.19315658  0.61251623  0.18367503    -0.23000
C1377       C  0.48311805  0.76748415  0.23553095    -0.05800
C1378       C  0.99547517  0.74282931  0.21995997     0.00100
C1379       C  0.00629213  0.71769175  0.23632203    -0.08500
C1380       C  0.00568152  0.71866638  0.26805776    -0.05800
C1381       C  0.99452767  0.74378039  0.28395022     0.00100
C1382       C  0.48248145  0.76866462  0.26735794    -0.08400
C1383       C  0.46876467  0.79617520  0.28258738     0.62000
H1384       H  0.47478555  0.78627925  0.22232988     0.12700
H1385       H  0.01444874  0.69974340  0.28074811     0.12700
C1386       C  0.01759598  0.68958467  0.22034371     0.62300
F1387       F  0.45545811  0.81552274  0.26193496    -0.22900
F1388       F  0.49113947  0.81208321  0.29762620    -0.20200
F1389       F  0.44653352  0.78736245  0.30278568    -0.19900
F1390       F  0.04331402  0.69612286  0.20377450    -0.20000
F1391       F  0.99531177  0.67890026  0.20117483    -0.20300
F1392       F  0.02475766  0.66683635  0.24050155    -0.23000
C1393       C  0.53121498  0.76712394  0.02099912    -0.05800
C1394       C  0.50756697  0.75052202  0.03431459     0.00100
C1395       C  0.98690781  0.73475642  0.01549611    -0.08500
C1396       C  0.98981628  0.73739311  0.98404799    -0.05800
C1397       C  0.51260450  0.75497407  0.97069355     0.00100
C1398       C  0.53397248  0.77000258  0.98939312    -0.08400
C1399       C  0.55886993  0.78977559  0.97635798     0.62000
H1400       H  0.54736239  0.77828299  0.03564268     0.12700
H1401       H  0.97399001  0.72562267  0.96949589     0.12700
C1402       C  0.96227346  0.71447273  0.02831683     0.62300
F1403       F  0.57451514  0.80518464  0.99868828    -0.22900
F1404       F  0.54638701  0.81084643  0.95697613    -0.20200
F1405       F  0.07951170  0.77228901  0.96069427    -0.19900
F1406       F  0.44001940  0.73193755  0.04205968    -0.20000
F1407       F  0.97469404  0.69478662  0.04915514    -0.20300
F1408       F  0.94837512  0.69742611  0.00605159    -0.23000
C1409       C  0.47387211  0.98643465  0.23092047    -0.05800
C1410       C  0.99854495  0.00063247  0.21650527     0.00100
C1411       C  0.01839049  0.51994003  0.23274255    -0.08500
C1412       C  0.01492260  0.52063253  0.26436781    -0.05800
C1413       C  0.99193794  0.00287705  0.27999472     0.00100
C1414       C  0.47010975  0.98735823  0.26243959    -0.08400
C1415       C  0.44240645  0.97285217  0.27676397     0.62000
H1416       H  0.45749587  0.97443725  0.21719864     0.12700
H1417       H  0.03059738  0.53349563  0.27813759     0.12700
C1418       C  0.04280503  0.53917462  0.21808470     0.62300
F1419       F  0.42227929  0.96213382  0.25524758    -0.22900
F1420       F  0.42726554  0.99380765  0.29429925    -0.20200
F1421       F  0.45114911  0.94889558  0.29466826    -0.19900
F1422       F  0.03005989  0.55700430  0.19580168    -0.20000
F1423       F  0.06489726  0.52096218  0.20555173    -0.20300
F1424       F  0.05678018  0.55804433  0.23876884    -0.23000
C1425       C  0.48005675  0.51363599  0.98051744    -0.05800
C1426       C  0.00630560  0.00310748  0.96598111     0.00100
C1427       C  0.02996169  0.98972332  0.98318232    -0.08500
C1428       C  0.02694707  0.98840081  0.01481810    -0.05800
C1429       C  0.00127925  0.49907688  0.02910541     0.00100
C1430       C  0.47688891  0.51153899  0.01203457    -0.08400
C1431       C  0.44769210  0.52294528  0.02645485     0.62000
H1432       H  0.46194766  0.52348068  0.96726695     0.12700
H1433       H  0.04495896  0.97853261  0.02818029     0.12700
C1434       C  0.05790346  0.97594850  0.96852850     0.62300
F1435       F  0.42845583  0.53617782  0.00557163    -0.22900
F1436       F  0.95435626  0.54439712  0.04812455    -0.20200
F1437       F  0.43215268  0.49915729  0.03938353    -0.19900
F1438       F  0.07526795  0.99827347  0.95531679    -0.20000
F1439       F  0.54927076  0.95541006  0.94681341    -0.20300
F1440       F  0.07604877  0.96113843  0.98930051    -0.23000
C1441       C  0.48135709  0.85597440  0.14509074    -0.05800
C1442       C  0.00384130  0.84068384  0.12848691     0.00100
C1443       C  0.02453075  0.85736189  0.11051230    -0.08500
C1444       C  0.02222398  0.88897245  0.11006443    -0.05800
C1445       C  0.99980091  0.90439446  0.12645565     0.00100
C1446       C  0.47896616  0.88759337  0.14456418    -0.08400
C1447       C  0.45501972  0.90289608  0.16389864     0.62000
H1448       H  0.46563626  0.84287005  0.15853477     0.12700
H1449       H  0.03788340  0.90201503  0.09649419     0.12700
C1450       C  0.04816566  0.84197631  0.09090332     0.62300
F1451       F  0.44014731  0.88266798  0.18251292    -0.22900
F1452       F  0.43350350  0.91635842  0.14560540    -0.20200
F1453       F  0.46849388  0.92441870  0.18209764    -0.19900
F1454       F  0.03428148  0.82077342  0.07267493    -0.20000
F1455       F  0.06962158  0.82810436  0.10895126    -0.20300
F1456       F  0.06311610  0.86215657  0.07230224    -0.23000
C1457       C  0.02336501  0.63988129  0.11000101    -0.05800
C1458       C  0.99776422  0.65459213  0.12192091     0.00100
C1459       C  0.47237151  0.63685218  0.13128750    -0.08500
C1460       C  0.47502839  0.60527953  0.13092960    -0.05800
C1461       C  0.00109430  0.59071610  0.11987057     0.00100
C1462       C  0.02513709  0.60830015  0.10779446    -0.08400
C1463       C  0.05196011  0.59425769  0.09139662     0.62000
H1464       H  0.04204254  0.65346583  0.10186192     0.12700
H1465       H  0.45646760  0.59165190  0.13921919     0.12700
C1466       C  0.44241378  0.65072760  0.14119672     0.62300
F1467       F  0.06942468  0.61570109  0.07680171    -0.22900
F1468       F  0.04163099  0.57423468  0.06972264    -0.20200
F1469       F  0.07046322  0.57937580  0.11172347    -0.19900
F1470       F  0.42947445  0.66592518  0.11715164    -0.20000
F1471       F  0.44699170  0.67039712  0.16495365    -0.20300
F1472       F  0.42179501  0.62919298  0.15067997    -0.23000
O1473       O  0.52634492  0.04214307  0.12278540    -0.73000
O1474       O  0.52547666  0.45194559  0.12347240    -0.74000
O1475       O  0.52620000  0.49688633  0.07725807    -0.62600
O1476       O  0.52499152  0.99788855  0.16903896    -0.71000
O1477       O  0.97484054  0.99894497  0.16817621    -0.70500
O1478       O  0.97617267  0.49665704  0.07706885    -0.61800
O1479       O  0.97539922  0.45248202  0.12315473    -0.74300
O1480       O  0.97615274  0.04302701  0.12196662    -0.73100
Cu1481     Cu  0.52747630  0.49732176  0.12274675     1.04600
Cu1482     Cu  0.97369033  0.99780584  0.12304294     1.04300
C1483       C  0.50152281  0.05688937  0.12179860     0.93200
C1484       C  0.50023242  0.43772338  0.12379885     0.92400
C1485       C  0.50068484  0.99740091  0.06352486     0.84500
C1486       C  0.49947250  0.49970552  0.18202613     0.90800
O1487       O  0.52588165  0.20103111  0.12360581    -0.73000
O1488       O  0.52890954  0.29175588  0.12711642    -0.74000
O1489       O  0.52540593  0.24412660  0.17075542    -0.62600
O1490       O  0.53013192  0.24821660  0.08024611    -0.71000
O1491       O  0.97986095  0.24979942  0.07797198    -0.70500
O1492       O  0.97523907  0.24652872  0.16861814    -0.61800
O1493       O  0.97877788  0.29327432  0.12463880    -0.74300
O1494       O  0.97565169  0.20316461  0.12161977    -0.73100
Cu1495     Cu  0.52934824  0.24625780  0.12556308     1.04600
Cu1496     Cu  0.97566362  0.24827550  0.12314394     1.04300
C1497       C  0.00009311  0.18780600  0.12239958     0.93200
C1498       C  0.00426070  0.30696120  0.12565445     0.92400
C1499       C  0.99976885  0.24435362  0.18391639     0.84500
C1500       C  0.00558628  0.24944433  0.06469511     0.90800
O1501       O  0.77491017  0.99784356  0.17066244    -0.73000
O1502       O  0.77960726  0.99691103  0.07957752    -0.74000
O1503       O  0.77664902  0.04248836  0.12462307    -0.62600
O1504       O  0.77645883  0.45159106  0.12599090    -0.71000
O1505       O  0.72625994  0.45108626  0.12439725    -0.70500
O1506       O  0.72641145  0.04147609  0.12276260    -0.61800
O1507       O  0.72742295  0.49663141  0.07944334    -0.74300
O1508       O  0.72453556  0.49619177  0.16964297    -0.73100
Cu1509     Cu  0.77918904  0.99727764  0.12522581     1.04600
Cu1510     Cu  0.72428186  0.49632372  0.12449194     1.04300
C1511       C  0.74893513  0.99723637  0.18357690     0.93200
C1512       C  0.75279153  0.49758690  0.06565184     0.92400
C1513       C  0.75122231  0.05630822  0.12393767     0.84500
C1514       C  0.75150229  0.43695495  0.12557204     0.90800
O1515       O  0.77387211  0.24664500  0.17303412    -0.73000
O1516       O  0.77843962  0.24834998  0.08273643    -0.74000
O1517       O  0.77433960  0.29256092  0.12846273    -0.62600
O1518       O  0.77784289  0.20196808  0.12671950    -0.71000
O1519       O  0.72761130  0.20034277  0.12468356    -0.70500
O1520       O  0.72422219  0.29072503  0.12583229    -0.61800
O1521       O  0.72821090  0.24617221  0.08026685    -0.74300
O1522       O  0.72355535  0.24479192  0.17063829    -0.73100
Cu1523     Cu  0.77788536  0.24740255  0.12788613     1.04600
Cu1524     Cu  0.72416070  0.24542087  0.12529975     1.04300
C1525       C  0.74804029  0.24579195  0.18604917     0.93200
C1526       C  0.75401569  0.24785790  0.06725725     0.92400
C1527       C  0.74872944  0.30603365  0.12689965     0.84500
C1528       C  0.75322160  0.18684290  0.12507933     0.90800
O1529       O  0.53115113  0.46251307  0.87118137    -0.73000
O1530       O  0.53075844  0.05261908  0.87328992    -0.74000
O1531       O  0.53139527  0.00653425  0.91776956    -0.62600
O1532       O  0.52959431  0.50805666  0.82642398    -0.71000
O1533       O  0.97921422  0.50737595  0.82742237    -0.70500
O1534       O  0.98132913  0.00548108  0.91816370    -0.61800
O1535       O  0.98077915  0.05240815  0.87439059    -0.74300
O1536       O  0.98097912  0.46106504  0.87156506    -0.73100
Cu1537     Cu  0.53278914  0.00759975  0.87235813     1.04600
Cu1538     Cu  0.97838184  0.50648029  0.87265666     1.04300
C1539       C  0.00653520  0.44737135  0.87101597     0.93200
C1540       C  0.00594473  0.06677411  0.87435730     0.92400
C1541       C  0.00607767  0.50502040  0.93176809     0.84500
C1542       C  0.00494501  0.00836322  0.81321442     0.90800
O1543       O  0.53686937  0.25803288  0.91922429    -0.73000
O1544       O  0.53364106  0.25698145  0.82831641    -0.74000
O1545       O  0.53385308  0.30312055  0.87342746    -0.62600
O1546       O  0.53631613  0.21223463  0.87404261    -0.71000
O1547       O  0.98656763  0.21112560  0.87595741    -0.70500
O1548       O  0.98393966  0.30114973  0.87480612    -0.61800
O1549       O  0.98390436  0.25537463  0.83032288    -0.74300
O1550       O  0.98688629  0.25672018  0.92036125    -0.73100
Cu1551     Cu  0.53699145  0.25771921  0.87369430     1.04600
Cu1552     Cu  0.98367230  0.25611832  0.87541557     1.04300
C1553       C  0.01234207  0.25726010  0.93417653     0.93200
C1554       C  0.00834979  0.25528263  0.81494673     0.92400
C1555       C  0.00837026  0.31651156  0.87420922     0.84500
C1556       C  0.01195990  0.19731150  0.87491256     0.90800
O1557       O  0.78449764  0.45595043  0.87419817    -0.73000
O1558       O  0.78034028  0.04605888  0.87518403    -0.74000
O1559       O  0.78216762  0.99904707  0.91875124    -0.62600
O1560       O  0.78268832  0.50131653  0.82889074    -0.71000
O1561       O  0.73247625  0.50121229  0.83018036    -0.70500
O1562       O  0.73186507  0.99870220  0.92009264    -0.61800
O1563       O  0.73018652  0.04590586  0.87673084    -0.74300
O1564       O  0.73423884  0.45535332  0.87445627    -0.73100
Cu1565     Cu  0.78262699  0.00098545  0.87327949     1.04600
Cu1566     Cu  0.73166613  0.50053240  0.87532435     1.04300
C1567       C  0.75952040  0.44131515  0.87400272     0.93200
C1568       C  0.75530005  0.06039551  0.87670119     0.92400
C1569       C  0.75955914  0.50022308  0.93451561     0.84500
C1570       C  0.75370944  0.00341696  0.81449061     0.90800
O1571       O  0.78372323  0.24989324  0.83292720    -0.73000
O1572       O  0.78127271  0.24948206  0.92365718    -0.74000
O1573       O  0.77970034  0.20467435  0.87796828    -0.62600
O1574       O  0.78551585  0.29510085  0.87879502    -0.71000
O1575       O  0.73532820  0.29776488  0.87769105    -0.70500
O1576       O  0.72963456  0.20739860  0.87632183    -0.61800
O1577       O  0.73101309  0.25177485  0.92204666    -0.74300
O1578       O  0.73349094  0.25326808  0.83197891    -0.73100
Cu1579     Cu  0.78433686  0.24971689  0.87839537     1.04600
Cu1580     Cu  0.73066007  0.25271135  0.87697590     1.04300
C1581       C  0.75883112  0.25137416  0.81818032     0.93200
C1582       C  0.75562342  0.25000231  0.93709747     0.92400
C1583       C  0.75383498  0.19161077  0.87695327     0.84500
C1584       C  0.76122624  0.31077414  0.87834454     0.90800
O1585       O  0.53884118  0.48130834  0.37005771    -0.73000
O1586       O  0.94782099  0.47770371  0.37353897    -0.74000
O1587       O  0.99170389  0.47961348  0.32653288    -0.62600
O1588       O  0.49465438  0.47874319  0.41719663    -0.71000
O1589       O  0.49143698  0.03111918  0.41784927    -0.70500
O1590       O  0.99078082  0.02916620  0.32693502    -0.61800
O1591       O  0.94577976  0.02951808  0.37278306    -0.74300
O1592       O  0.53603710  0.03122721  0.37190546    -0.73100
Cu1593     Cu  0.99334801  0.47757070  0.37174848     1.04600
Cu1594     Cu  0.49091874  0.03200487  0.37234025     1.04300
C1595       C  0.55075527  0.00651742  0.37154816     0.93200
C1596       C  0.93144093  0.00463767  0.37414582     0.92400
C1597       C  0.49061047  0.00383376  0.31330547     0.84500
C1598       C  0.99198507  0.00633005  0.43261580     0.90800
O1599       O  0.95138147  0.21712902  0.37495996    -0.73000
O1600       O  0.54166523  0.21688032  0.37375938    -0.74000
O1601       O  0.49701279  0.21680683  0.41962862    -0.62600
O1602       O  0.99580764  0.21792063  0.32868426    -0.71000
O1603       O  0.99618472  0.26775348  0.32972877    -0.70500
O1604       O  0.49689954  0.26665411  0.42037103    -0.61800
O1605       O  0.54218817  0.26678953  0.37495333    -0.74300
O1606       O  0.95124908  0.26706149  0.37547531    -0.73100
Cu1607     Cu  0.49641087  0.21552058  0.37426813     1.04600
Cu1608     Cu  0.99665792  0.26873582  0.37514726     1.04300
C1609       C  0.93701201  0.24201051  0.37578162     0.93200
C1610       C  0.55627167  0.24165307  0.37427001     0.92400
C1611       C  0.99725377  0.24111365  0.43438038     0.84500
C1612       C  0.49545400  0.24295634  0.31482523     0.90800
O1613       O  0.74206766  0.47986941  0.32993986    -0.73000
O1614       O  0.73905575  0.48109803  0.42021901    -0.74000
O1615       O  0.69526068  0.48409512  0.37329388    -0.62600
O1616       O  0.78555168  0.47699551  0.37666174    -0.71000
O1617       O  0.78748132  0.02900982  0.37411828    -0.70500
O1618       O  0.69698155  0.03476980  0.37218387    -0.61800
O1619       O  0.74154342  0.03295043  0.41852349    -0.74300
O1620       O  0.74360313  0.03088124  0.32777254    -0.73100
Cu1621     Cu  0.74027317  0.47882213  0.37506554     1.04600
Cu1622     Cu  0.74244331  0.03366464  0.37311764     1.04300
C1623       C  0.74290601  0.00560305  0.31402478     0.93200
C1624       C  0.74049750  0.00840883  0.43346977     0.92400
C1625       C  0.68133310  0.01059780  0.37249462     0.84500
C1626       C  0.80038605  0.00325588  0.37462646     0.90800
O1627       O  0.79228318  0.21787095  0.37596732    -0.73000
O1628       O  0.70130180  0.21775334  0.37776408    -0.74000
O1629       O  0.74583411  0.21740167  0.33158141    -0.62600
O1630       O  0.74803247  0.21793171  0.42229833    -0.71000
O1631       O  0.74845809  0.26772879  0.42197258    -0.70500
O1632       O  0.74494665  0.26711861  0.33114639    -0.61800
O1633       O  0.70147286  0.26767010  0.37815521    -0.74300
O1634       O  0.79175872  0.26776214  0.37494050    -0.73100
Cu1635     Cu  0.74683604  0.21598070  0.37692510     1.04600
Cu1636     Cu  0.74664105  0.26927966  0.37655564     1.04300
C1637       C  0.80634839  0.24300549  0.37491271     0.93200
C1638       C  0.68704897  0.24280545  0.37834127     0.92400
C1639       C  0.74490535  0.24206724  0.31685334     0.84500
C1640       C  0.74903461  0.24288388  0.43657956     0.90800
O1641       O  0.49498139  0.47494085  0.66783421    -0.73000
O1642       O  0.49124385  0.47428270  0.57712344    -0.74000
O1643       O  0.53826970  0.47492301  0.62123955    -0.62600
O1644       O  0.94774405  0.47388732  0.62433810    -0.71000
O1645       O  0.94790658  0.02901308  0.62481503    -0.70500
O1646       O  0.53887948  0.02841225  0.62147682    -0.61800
O1647       O  0.99170782  0.02915463  0.57765600    -0.74300
O1648       O  0.99542494  0.02827399  0.66842896    -0.73100
Cu1649     Cu  0.49303578  0.47279876  0.62258598     1.04600
Cu1650     Cu  0.99343671  0.03045952  0.62305814     1.04300
C1651       C  0.49656856  0.00333098  0.68268400     0.93200
C1652       C  0.99019496  0.00429183  0.56319429     0.92400
C1653       C  0.55274775  0.00316482  0.62114476     0.84500
C1654       C  0.93345169  0.00410064  0.62601606     0.90800
O1655       O  0.00046881  0.22175840  0.58043540    -0.73000
O1656       O  0.00449127  0.22482387  0.67113618    -0.74000
O1657       O  0.95727899  0.22211171  0.62769236    -0.62600
O1658       O  0.54765606  0.22434866  0.62411050    -0.71000
O1659       O  0.54645275  0.27419369  0.62213850    -0.70500
O1660       O  0.95601954  0.27197489  0.62653837    -0.61800
O1661       O  0.50375203  0.27473839  0.66932029    -0.74300
O1662       O  0.49890921  0.27169568  0.57911500    -0.73100
Cu1663     Cu  0.00252733  0.22147695  0.62588132     1.04600
Cu1664     Cu  0.50120599  0.27488059  0.62418233     1.04300
C1665       C  0.99873517  0.24628841  0.56541085     0.93200
C1666       C  0.50509779  0.25032501  0.68442152     0.92400
C1667       C  0.94228997  0.24665716  0.62740431     0.84500
C1668       C  0.56140125  0.24962681  0.62277282     0.90800
O1669       O  0.69705865  0.47556018  0.62550480    -0.73000
O1670       O  0.78824489  0.47384563  0.62510565    -0.74000
O1671       O  0.74313983  0.47430354  0.67063245    -0.62600
O1672       O  0.74226731  0.47459361  0.58010990    -0.71000
O1673       O  0.74293122  0.02893473  0.57905429    -0.70500
O1674       O  0.74335472  0.02986690  0.66987610    -0.61800
O1675       O  0.78831695  0.02973081  0.62436813    -0.74300
O1676       O  0.69784088  0.02953523  0.62409701    -0.73100
Cu1677     Cu  0.74260316  0.47279750  0.62538402     1.04600
Cu1678     Cu  0.74310081  0.03125078  0.62438781     1.04300
C1679       C  0.68346598  0.00463527  0.62337404     0.93200
C1680       C  0.80285226  0.00492800  0.62477405     0.92400
C1681       C  0.74313303  0.00491759  0.68426097     0.84500
C1682       C  0.74293458  0.00383246  0.56487263     0.90800
O1683       O  0.75141461  0.27400353  0.58221179    -0.73000
O1684       O  0.75191931  0.27527057  0.67260093    -0.74000
O1685       O  0.79694959  0.27502970  0.62759826    -0.62600
O1686       O  0.70618639  0.27398104  0.62750926    -0.71000
O1687       O  0.70690699  0.22410548  0.62853586    -0.70500
O1688       O  0.79732758  0.22514226  0.62824436    -0.61800
O1689       O  0.75258991  0.22547024  0.67383094    -0.74300
O1690       O  0.75177446  0.22422621  0.58270325    -0.73100
Cu1691     Cu  0.75158469  0.27628458  0.62744201     1.04600
Cu1692     Cu  0.75216169  0.22297808  0.62832698     1.04300
C1693       C  0.75118953  0.24902469  0.56798573     0.93200
C1694       C  0.75244719  0.25078981  0.68762471     0.92400
C1695       C  0.81148540  0.25021387  0.62839809     0.84500
C1696       C  0.69218500  0.24879993  0.62813574     0.90800
C1697       C  0.89412597  0.26829087  0.64541617    -0.05800
C1698       C  0.90880056  0.24612490  0.62816980     0.00100
C1699       C  0.89133670  0.22512433  0.61137041    -0.08500
C1700       C  0.85961436  0.22765971  0.61199902    -0.05800
C1701       C  0.84495464  0.25003558  0.62892292     0.00100
C1702       C  0.86234312  0.27040919  0.64652949    -0.08400
C1703       C  0.84767346  0.29350524  0.66726293     0.62000
H1704       H  0.90789574  0.28390924  0.65830270     0.12700
H1705       H  0.84584526  0.21209105  0.59905460     0.12700
C1706       C  0.90580669  0.20049614  0.59235144     0.62300
F1707       F  0.86885364  0.30790018  0.68534093    -0.22900
F1708       F  0.82697850  0.27945749  0.68606370    -0.20200
F1709       F  0.83304865  0.31523950  0.65031203    -0.19900
F1710       F  0.91995007  0.17981840  0.61098178    -0.20000
F1711       F  0.92682910  0.21286763  0.57276510    -0.20300
F1712       F  0.88456939  0.18511705  0.57518006    -0.23000
C1713       C  0.60940972  0.22937320  0.64238915    -0.05800
C1714       C  0.59487487  0.25016315  0.62340075     0.00100
C1715       C  0.61242156  0.27051427  0.60601757    -0.08500
C1716       C  0.64416507  0.26933214  0.60855907    -0.05800
C1717       C  0.65870128  0.24843352  0.62742771     0.00100
C1718       C  0.64112923  0.22821020  0.64496003    -0.08400
C1719       C  0.65545995  0.20617347  0.66704444     0.62000
H1720       H  0.59555766  0.21414914  0.65560269     0.12700
H1721       H  0.65800317  0.28469825  0.59553796     0.12700
C1722       C  0.59801513  0.29280049  0.58425685     0.62300
F1723       F  0.63394082  0.19229144  0.68507290    -0.22900
F1724       F  0.67548406  0.22119124  0.68585837    -0.20200
F1725       F  0.67075260  0.18393084  0.65138783    -0.19900
F1726       F  0.58267047  0.31476968  0.60025358    -0.20000
F1727       F  0.57800714  0.27798441  0.56525769    -0.20300
F1728       F  0.61948567  0.30699544  0.56642366    -0.23000
C1729       C  0.85148033  0.48437061  0.64725042    -0.05800
C1730       C  0.83624987  0.00534146  0.62481450     0.00100
C1731       C  0.85311016  0.02114919  0.60268223    -0.08500
C1732       C  0.88491598  0.02056428  0.60436022    -0.05800
C1733       C  0.90006231  0.00432426  0.62691326     0.00100
C1734       C  0.88333401  0.48441499  0.64877482    -0.08400
C1735       C  0.89923199  0.47087957  0.67599955     0.62000
H1736       H  0.83828885  0.47366371  0.66487194     0.12700
H1737       H  0.89832892  0.03240775  0.58767073     0.12700
C1738       C  0.83771172  0.03750606  0.57670985     0.62300
F1739       F  0.87883175  0.46189412  0.69799804    -0.22900
F1740       F  0.91870213  0.99163666  0.68958785    -0.20200
F1741       F  0.91579790  0.44597236  0.66723432    -0.19900
F1742       F  0.82150297  0.06184314  0.58756187    -0.20000
F1743       F  0.81691762  0.50944946  0.56042379    -0.20300
F1744       F  0.85849701  0.04817203  0.55586133    -0.23000
C1745       C  0.60174696  0.02128842  0.60149420    -0.05800
C1746       C  0.58616984  0.00258371  0.62171426     0.00100
C1747       C  0.60220657  0.48256136  0.64474007    -0.08500
C1748       C  0.63404888  0.48339670  0.64429753    -0.05800
C1749       C  0.65004631  0.00466765  0.62198274     0.00100
C1750       C  0.63361228  0.02253100  0.60104968    -0.08400
C1751       C  0.64949553  0.04196775  0.57764696     0.62000
H1752       H  0.58864711  0.03483217  0.58586473     0.12700
H1753       H  0.64692108  0.46996828  0.66019286     0.12700
C1754       C  0.58609685  0.46440714  0.66901608     0.62300
F1755       F  0.62926168  0.05384416  0.55687865    -0.22900
F1756       F  0.67035717  0.52183495  0.56354252    -0.20200
F1757       F  0.66409036  0.06570615  0.59169997    -0.19900
F1758       F  0.57057078  0.44063276  0.65607581    -0.20000
F1759       F  0.56658651  0.98278576  0.68238141    -0.20300
F1760       F  0.60625007  0.45265763  0.68992998    -0.23000
C1761       C  0.73646408  0.26804155  0.48482844    -0.05800
C1762       C  0.75016498  0.24348156  0.47024200     0.00100
C1763       C  0.76479821  0.22108649  0.48798672    -0.08500
C1764       C  0.76454450  0.22402754  0.51968651    -0.05800
C1765       C  0.75064169  0.24850635  0.53428471     0.00100
C1766       C  0.73628721  0.27105738  0.51648162    -0.08400
C1767       C  0.72002441  0.29786972  0.53042038     0.62000
H1768       H  0.72550151  0.28498323  0.47104521     0.12700
H1769       H  0.77553432  0.20709979  0.53346917     0.12700
C1770       C  0.78145851  0.19461605  0.47388285     0.62300
F1771       F  0.70468196  0.31474082  0.50899045    -0.22900
F1772       F  0.74080883  0.31664024  0.54434901    -0.20200
F1773       F  0.69896142  0.28797152  0.55131117    -0.19900
F1774       F  0.80216923  0.20495840  0.45286075    -0.20000
F1775       F  0.76095624  0.17550314  0.46002324    -0.20300
F1776       F  0.79727021  0.17801623  0.49518794    -0.23000
C1777       C  0.75473389  0.02894885  0.51642062    -0.05800
C1778       C  0.74233614  0.00383096  0.53122050     0.00100
C1779       C  0.72776724  0.47722241  0.51414461    -0.08500
C1780       C  0.72751908  0.48076828  0.48256117    -0.05800
C1781       C  0.74108641  0.00851019  0.46718233     0.00100
C1782       C  0.75472877  0.03170576  0.48474383    -0.08400
C1783       C  0.77003263  0.05894792  0.47057270     0.62000
H1784       H  0.76487508  0.04653069  0.53005304     0.12700
H1785       H  0.71674714  0.46379100  0.46864639     0.12700
C1786       C  0.71303171  0.44941071  0.52781465     0.62300
F1787       F  0.78454103  0.07669939  0.49189307    -0.22900
F1788       F  0.74861314  0.07668409  0.45627146    -0.20200
F1789       F  0.79312193  0.54471656  0.45143767    -0.19900
F1790       F  0.70121026  0.93420864  0.50662013    -0.20000
F1791       F  0.69162831  0.45781283  0.54904647    -0.20300
F1792       F  0.73495661  0.43162480  0.54128834    -0.23000
C1793       C  0.48041077  0.26375026  0.48279264    -0.05800
C1794       C  0.99721002  0.24092918  0.46796003     0.00100
C1795       C  0.01343154  0.21947715  0.48541650    -0.08500
C1796       C  0.01289948  0.22199799  0.51711730    -0.05800
C1797       C  0.99717937  0.24524133  0.53187924     0.00100
C1798       C  0.47992795  0.26622265  0.51448852    -0.08400
C1799       C  0.46057998  0.29057671  0.52906400     0.62000
H1800       H  0.46753542  0.27950126  0.46920229     0.12700
H1801       H  0.02535302  0.20595831  0.53074495     0.12700
C1802       C  0.03215564  0.19464678  0.47089884     0.62300
F1803       F  0.44211398  0.30489336  0.50821766    -0.22900
F1804       F  0.47906175  0.31216272  0.54206781    -0.20200
F1805       F  0.44203157  0.27806484  0.55092348    -0.19900
F1806       F  0.05216402  0.20693583  0.45021847    -0.20000
F1807       F  0.01322023  0.17437546  0.45648574    -0.20300
F1808       F  0.04901105  0.17882921  0.49199485    -0.23000
C1809       C  0.88845680  0.26184083  0.35704740    -0.05800
C1810       C  0.90361751  0.24192500  0.37640337     0.00100
C1811       C  0.88676871  0.22286567  0.39581505    -0.08500
C1812       C  0.85497123  0.22365263  0.39413180    -0.05800
C1813       C  0.83978310  0.24337223  0.37453918     0.00100
C1814       C  0.85667143  0.26284538  0.35553756    -0.08400
C1815       C  0.84148044  0.28394574  0.33311042     0.62000
H1816       H  0.90182324  0.27660920  0.34290720     0.12700
H1817       H  0.84162769  0.20906600  0.40850548     0.12700
C1818       C  0.90207042  0.20283626  0.41914721     0.62300
F1819       F  0.86230884  0.29722095  0.31386228    -0.22900
F1820       F  0.82659156  0.30670175  0.34840389    -0.15400
F1821       F  0.82091671  0.26812768  0.31557839    -0.19900
F1822       F  0.92240438  0.21958994  0.43607193    -0.20000
F1823       F  0.91728958  0.17962055  0.40491949    -0.20300
F1824       F  0.88128041  0.19021752  0.43887330    -0.23000
C1825       C  0.60441408  0.26042782  0.39545375    -0.05800
C1826       C  0.58974108  0.24133303  0.37483273     0.00100
C1827       C  0.60713974  0.22283987  0.35532060    -0.08500
C1828       C  0.63891221  0.22379793  0.35760500    -0.05800
C1829       C  0.65358834  0.24292882  0.37816271     0.00100
C1830       C  0.63621487  0.26157581  0.39756461    -0.08400
C1831       C  0.65099389  0.28201351  0.42088575     0.62000
H1832       H  0.59064287  0.27438899  0.41010286     0.12700
H1833       H  0.65267064  0.20984087  0.34294233     0.12700
C1834       C  0.59242343  0.20301695  0.33145583     0.62300
F1835       F  0.62985135  0.29448753  0.44033321    -0.22900
F1836       F  0.66592269  0.30534364  0.40654301    -0.20200
F1837       F  0.67148719  0.26577658  0.43807846    -0.19900
F1838       F  0.57210510  0.21977547  0.31457992    -0.20000
F1839       F  0.57733271  0.17940406  0.34514640    -0.20300
F1840       F  0.61361472  0.19097782  0.31178763    -0.23000
C1841       C  0.97453888  0.48196902  0.47954668    -0.05800
C1842       C  0.99183735  0.00668876  0.46601993     0.00100
C1843       C  0.51422468  0.02209834  0.48317993    -0.08500
C1844       C  0.51255518  0.02100803  0.51491644    -0.05800
C1845       C  0.98966739  0.00466921  0.52977428     0.00100
C1846       C  0.97263274  0.47998453  0.51127094    -0.08400
C1847       C  0.95018838  0.45823429  0.52550718     0.62000
H1848       H  0.96081685  0.46727973  0.46555383     0.12700
H1849       H  0.52951681  0.03241137  0.52847611     0.12700
C1850       C  0.54048628  0.03826783  0.46805989     0.62300
F1851       F  0.93182746  0.44463439  0.50406623    -0.22900
F1852       F  0.93161110  0.47354680  0.54547986    -0.20200
F1853       F  0.96557212  0.43576820  0.54074138    -0.19900
F1854       F  0.52980762  0.06241022  0.45148694    -0.20000
F1855       F  0.55552114  0.01853939  0.44908853    -0.20300
F1856       F  0.56123032  0.04913038  0.48890485    -0.23000
C1857       C  0.88394576  0.47779060  0.36257313    -0.05800
C1858       C  0.89789126  0.00455499  0.37517256     0.00100
C1859       C  0.88092394  0.02700770  0.39052806    -0.08500
C1860       C  0.84917284  0.02514617  0.39004838    -0.05800
C1861       C  0.83388784  0.00178290  0.37509327     0.00100
C1862       C  0.85208396  0.47582036  0.36270804    -0.08400
C1863       C  0.83676333  0.44975255  0.34643196     0.62000
H1864       H  0.89715762  0.46082848  0.35093733     0.12700
H1865       H  0.83586703  0.04222227  0.40141138     0.12700
C1866       C  0.89587075  0.05263090  0.40786051     0.62300
F1867       F  0.85747267  0.43167871  0.33146695    -0.22900
F1868       F  0.82125132  0.93436951  0.36385256    -0.20200
F1869       F  0.81645180  0.46062057  0.32523321    -0.19900
F1870       F  0.90957332  0.07229986  0.38787822    -0.20000
F1871       F  0.91977986  0.53760896  0.42908078    -0.20300
F1872       F  0.87506341  0.06893728  0.42464131    -0.23000
C1873       C  0.59879174  0.02867323  0.38921251    -0.05800
C1874       C  0.58416542  0.00754605  0.37063163     0.00100
C1875       C  0.60309289  0.49200625  0.34767936    -0.08500
C1876       C  0.63485817  0.49366288  0.34949359    -0.05800
C1877       C  0.64792588  0.01174665  0.37148075     0.00100
C1878       C  0.63055949  0.03096364  0.39028731    -0.08400
C1879       C  0.64528761  0.05289761  0.41221588     0.62000
H1880       H  0.58502336  0.04313659  0.40334726     0.12700
H1881       H  0.64871346  0.48063774  0.33406384     0.12700
C1882       C  0.58839529  0.47385971  0.32251028     0.62300
F1883       F  0.62410054  0.06677479  0.43065011    -0.22900
F1884       F  0.66039754  0.07511881  0.39637099    -0.20200
F1885       F  0.66560917  0.03777808  0.43059502    -0.19900
F1886       F  0.56792480  0.49172097  0.30702225    -0.20000
F1887       F  0.57345639  0.44922407  0.33439341    -0.20300
F1888       F  0.60959581  0.46345201  0.30192732    -0.23000
C1889       C  0.77031237  0.22902793  0.73604476    -0.05800
C1890       C  0.75372084  0.25167555  0.72116849     0.00100
C1891       C  0.73899548  0.27428546  0.73856172    -0.08500
C1892       C  0.74176847  0.27343043  0.77018338    -0.05800
C1893       C  0.75881444  0.25119878  0.78484989     0.00100
C1894       C  0.77326456  0.22844579  0.76771727    -0.08400
C1895       C  0.79109373  0.20332136  0.78280697     0.62000
H1896       H  0.78145251  0.21195426  0.72256452     0.12700
H1897       H  0.73075560  0.29042123  0.78389491     0.12700
C1898       C  0.71983083  0.29891385  0.72423687     0.62300
F1899       F  0.80010280  0.18155638  0.76229572    -0.22900
F1900       F  0.77341335  0.18943373  0.80452941    -0.20200
F1901       F  0.81684209  0.21504149  0.79627293    -0.19900
F1902       F  0.69890459  0.28636653  0.70459141    -0.20000
F1903       F  0.73831453  0.31875720  0.70874485    -0.20300
F1904       F  0.70392249  0.31528010  0.74563538    -0.23000
C1905       C  0.73107161  0.48498463  0.76863275    -0.05800
C1906       C  0.75184335  0.00455750  0.78105976     0.00100
C1907       C  0.77126018  0.02261721  0.76300866    -0.08500
C1908       C  0.76720289  0.02242644  0.73145166    -0.05800
C1909       C  0.74459836  0.00494644  0.71761243     0.00100
C1910       C  0.72664117  0.48368394  0.73723299    -0.08400
C1911       C  0.69935061  0.46700370  0.72455850     0.62000
H1912       H  0.71525588  0.47358711  0.78342703     0.12700
H1913       H  0.78215247  0.03552419  0.71716505     0.12700
C1914       C  0.79564689  0.04256216  0.77677572     0.62300
F1915       F  0.68069805  0.45605271  0.74719681    -0.22900
F1916       F  0.70884204  0.44278963  0.70737668    -0.20200
F1917       F  0.68238841  0.48629461  0.70678653    -0.19900
F1918       F  0.81840676  0.02492205  0.78897431    -0.20000
F1919       F  0.78319824  0.06048130  0.79914343    -0.20300
F1920       F  0.80868202  0.06136674  0.75548151    -0.23000
C1921       C  0.78151458  0.39342756  0.89246509    -0.05800
C1922       C  0.76005730  0.40789350  0.87401299     0.00100
C1923       C  0.74007269  0.39027996  0.85611997    -0.08500
C1924       C  0.74156464  0.35874222  0.85833319    -0.05800
C1925       C  0.76253901  0.34420684  0.87724405     0.00100
C1926       C  0.78313837  0.36180061  0.89454625    -0.08400
C1927       C  0.80594209  0.34758550  0.91597481     0.62000
H1928       H  0.79677780  0.40724937  0.90572843     0.12700
H1929       H  0.72625971  0.34500778  0.84501685     0.12700
C1930       C  0.71796194  0.40443883  0.83392338     0.62300
F1931       F  0.82117418  0.36896911  0.93300875    -0.22900
F1932       F  0.82732540  0.33156785  0.89975440    -0.20200
F1933       F  0.79111666  0.32848629  0.93569799    -0.19900
F1934       F  0.73320810  0.42443566  0.81541863    -0.20000
F1935       F  0.69531184  0.41942630  0.84940507    -0.20300
F1936       F  0.70426771  0.38308970  0.81561645    -0.23000
C1937       C  0.73042683  0.10917578  0.86480385    -0.05800
C1938       C  0.75519902  0.09398036  0.87778971     0.00100
C1939       C  0.77876014  0.11111129  0.89146544    -0.08500
C1940       C  0.77697884  0.14272274  0.89065026    -0.05800
C1941       C  0.75251861  0.15799831  0.87720850     0.00100
C1942       C  0.72850331  0.14087795  0.86424479    -0.08400
C1943       C  0.70117081  0.15558691  0.84932768     0.62000
H1944       H  0.71252600  0.09585718  0.85466966     0.12700
H1945       H  0.79496834  0.15591853  0.90078651     0.12700
C1946       C  0.80543196  0.09648336  0.90763074     0.62300
F1947       F  0.68224014  0.13465274  0.83578980    -0.22900
F1948       F  0.71067009  0.17541870  0.82718007    -0.20200
F1949       F  0.68431586  0.17084171  0.87077397    -0.19900
F1950       F  0.82409347  0.08240037  0.88688358    -0.20000
F1951       F  0.79495716  0.07567284  0.92840684    -0.20300
F1952       F  0.82285087  0.11734372  0.92315749    -0.23000
C1953       C  0.98510033  0.23592022  0.73409096    -0.05800
C1954       C  0.50684981  0.25154331  0.71766667     0.00100
C1955       C  0.52985714  0.26764384  0.73310258    -0.08500
C1956       C  0.52939285  0.26816985  0.76487901    -0.05800
C1957       C  0.50664187  0.25340618  0.78148318     0.00100
C1958       C  0.98439129  0.23658460  0.76583458    -0.08400
C1959       C  0.95974071  0.21904400  0.78219834     0.62000
H1960       H  0.96790064  0.22363875  0.72165256     0.12700
H1961       H  0.54664420  0.28063233  0.77704092     0.12700
C1962       C  0.55521092  0.28349772  0.71614651     0.62300
F1963       F  0.94299774  0.20126370  0.76261177    -0.22900
F1964       F  0.93988379  0.23879123  0.79606131    -0.20200
F1965       F  0.97262806  0.20028739  0.80360530    -0.19900
F1966       F  0.54354665  0.30735966  0.69981991    -0.20000
F1967       F  0.56916088  0.26350449  0.69662462    -0.20300
F1968       F  0.57714316  0.29470768  0.73554789    -0.23000
C1969       C  0.00412518  0.03122551  0.73080762    -0.05800
C1970       C  0.49941674  0.00331165  0.71641756     0.00100
C1971       C  0.49634586  0.47429866  0.73478968    -0.08500
C1972       C  0.49841511  0.47791359  0.76633022    -0.05800
C1973       C  0.50404300  0.00763112  0.78007503     0.00100
C1974       C  0.00660971  0.03379619  0.76238322    -0.08400
C1975       C  0.01156189  0.06430259  0.77706892     0.62000
H1976       H  0.00587440  0.05136752  0.71718438     0.12700
H1977       H  0.49645855  0.45862227  0.78116068     0.12700
C1978       C  0.49219758  0.44263971  0.72230094     0.62300
F1979       F  0.01396289  0.08711770  0.75590840    -0.22900
F1980       F  0.03804004  0.06382102  0.79385405    -0.20200
F1981       F  0.98743778  0.07087606  0.79592426    -0.19900
F1982       F  0.49055379  0.42123283  0.74497724    -0.20000
F1983       F  0.51656567  0.43515611  0.70410819    -0.20300
F1984       F  0.46554559  0.44100981  0.70591003    -0.23000
C1985       C  0.98484703  0.39849907  0.88712279    -0.05800
C1986       C  0.00753740  0.41388292  0.87109856     0.00100
C1987       C  0.53022586  0.39712089  0.85597195    -0.08500
C1988       C  0.52957232  0.36548973  0.85789723    -0.05800
C1989       C  0.00702815  0.35001969  0.87383083     0.00100
C1990       C  0.98411093  0.36684750  0.88890172    -0.08400
C1991       C  0.95933774  0.35183944  0.90748526     0.62000
H1992       H  0.96767355  0.41163353  0.89861444     0.12700
H1993       H  0.54675243  0.35237624  0.84639226     0.12700
C1994       C  0.55456250  0.41212076  0.83683760     0.62300
F1995       F  0.94218907  0.37260117  0.92338230    -0.22900
F1996       F  0.97216745  0.33229715  0.92821546    -0.20200
F1997       F  0.93984972  0.33618751  0.88866734    -0.19900
F1998       F  0.57467507  0.42752548  0.85520180    -0.20000
F1999       F  0.54127118  0.43189952  0.81663886    -0.20300
F2000       F  0.57106974  0.39136601  0.82028113    -0.23000
C2001       C  0.52800889  0.11486717  0.85699713    -0.05800
C2002       C  0.00662578  0.10022395  0.87499484     0.00100
C2003       C  0.98744516  0.11772418  0.89379187    -0.08500
C2004       C  0.99042416  0.14928561  0.89328279    -0.05800
C2005       C  0.01199540  0.16385195  0.87503845     0.00100
C2006       C  0.53096892  0.14642590  0.85648343    -0.08400
C2007       C  0.55421551  0.16076409  0.83561599     0.62000
H2008       H  0.54277204  0.10117038  0.84310708     0.12700
H2009       H  0.97578105  0.16299294  0.90731263     0.12700
C2010       C  0.96450622  0.10333996  0.91494291     0.62300
F2011       F  0.56808194  0.13970696  0.81713320    -0.22900
F2012       F  0.57660942  0.17463714  0.85252846    -0.20200
F2013       F  0.54023778  0.18179066  0.81722878    -0.19900
F2014       F  0.97862487  0.08184224  0.93266757    -0.20000
F2015       F  0.94157928  0.09000997  0.89831164    -0.20300
F2016       F  0.95135549  0.12427619  0.93407280    -0.23000
C2017       C  0.73606046  0.21948797  0.23350757    -0.05800
C2018       C  0.74647670  0.24560164  0.21926356     0.00100
C2019       C  0.75505135  0.27081980  0.23669659    -0.08500
C2020       C  0.75400257  0.26860124  0.26836262    -0.05800
C2021       C  0.74451033  0.24208868  0.28308438     0.00100
C2022       C  0.73490541  0.21706470  0.26522123    -0.08400
C2023       C  0.72321043  0.18793349  0.27899388     0.62000
H2024       H  0.72936126  0.20069165  0.21939054     0.12700
H2025       H  0.76106185  0.28767486  0.28187503     0.12700
C2026       C  0.76451048  0.30015259  0.22177622     0.62300
F2027       F  0.69990294  0.19406353  0.29899172    -0.22900
F2028       F  0.74654207  0.17330478  0.29387323    -0.20200
F2029       F  0.71197167  0.16841937  0.25727351    -0.19900
F2030       F  0.74174409  0.30986117  0.20256386    -0.20000
F2031       F  0.79083955  0.29586344  0.20538116    -0.20300
F2032       F  0.76983814  0.32267029  0.24276018    -0.23000
C2033       C  0.73639754  0.22898591  0.01800883    -0.05800
C2034       C  0.75533595  0.24876484  0.03399395     0.00100
C2035       C  0.77391496  0.26939563  0.01804452    -0.08500
C2036       C  0.77362296  0.26860855  0.98632755    -0.05800
C2037       C  0.75456926  0.24896455  0.97035526     0.00100
C2038       C  0.73547636  0.22878909  0.98629521    -0.08400
C2039       C  0.71471950  0.20671542  0.97007254     0.62000
H2040       H  0.72220940  0.21360656  0.03070247     0.12700
H2041       H  0.78802933  0.28375850  0.97364647     0.12700
C2042       C  0.79292885  0.29299559  0.03420846     0.62300
F2043       F  0.70111559  0.18678078  0.98992949    -0.22900
F2044       F  0.73118904  0.19007979  0.94936262    -0.20200
F2045       F  0.69193640  0.22221776  0.95526830    -0.19900
F2046       F  0.81654389  0.27930741  0.04949710    -0.20000
F2047       F  0.77507878  0.30873303  0.05448800    -0.20300
F2048       F  0.80527281  0.31360747  0.01422934    -0.23000
C2049       C  0.76810222  0.01647709  0.23243503    -0.05800
C2050       C  0.74688104  0.99852249  0.21703543     0.00100
C2051       C  0.72650036  0.48075396  0.23543721    -0.08500
C2052       C  0.72633518  0.48407345  0.26701367    -0.05800
C2053       C  0.74479581  0.00437301  0.28066712     0.00100
C2054       C  0.76741639  0.01986495  0.26404103    -0.08400
C2055       C  0.79119496  0.03932877  0.27948010     0.62000
H2056       H  0.78499115  0.02842557  0.21934222     0.12700
H2057       H  0.70991982  0.47182045  0.28043235     0.12700
C2058       C  0.70455494  0.45871497  0.22078178     0.62300
F2059       F  0.81312102  0.04922142  0.25941413    -0.22900
F2060       F  0.77755676  0.06437551  0.29208162    -0.20200
F2061       F  0.80564048  0.02305011  0.30188381    -0.19900
F2062       F  0.72019807  0.43938058  0.20186484    -0.20000
F2063       F  0.68291887  0.47421198  0.20436262    -0.20300
F2064       F  0.68953966  0.44137612  0.24203384    -0.23000
C2065       C  0.73350311  0.51157758  0.98257685    -0.05800
C2066       C  0.75943021  0.50006710  0.96816135     0.00100
C2067       C  0.78333970  0.48808551  0.98605848    -0.08500
C2068       C  0.77396924  0.97746882  0.01570406    -0.05800
C2069       C  0.75381893  0.49884773  0.03205023     0.00100
C2070       C  0.73888004  0.01990008  0.01418919    -0.08400
C2071       C  0.72020583  0.04423587  0.02961569     0.62000
H2072       H  0.72740851  0.03506039  0.96919637     0.12700
H2073       H  0.79791443  0.47849419  0.03157305     0.12700
C2074       C  0.81206814  0.47507947  0.97223251     0.62300
F2075       F  0.70864953  0.06478192  0.00909963    -0.22900
F2076       F  0.73817592  0.05981663  0.04995216    -0.20200
F2077       F  0.68422627  0.50253854  0.04092508    -0.19900
F2078       F  0.81565394  0.96296119  0.95126288    -0.20000
F2079       F  0.80465636  0.45306718  0.95136320    -0.20300
F2080       F  0.83071902  0.46204275  0.99375310    -0.23000
C2081       C  0.72850179  0.38827652  0.11034902    -0.05800
C2082       C  0.75147707  0.40343744  0.12630560     0.00100
C2083       C  0.77266339  0.38641467  0.14342103    -0.08500
C2084       C  0.77072495  0.35479331  0.14282824    -0.05800
C2085       C  0.74793878  0.33957442  0.12667769     0.00100
C2086       C  0.72608474  0.35663262  0.11035079    -0.08400
C2087       C  0.70044811  0.34186239  0.09271126     0.62000
H2088       H  0.71225424  0.40159181  0.09775378     0.12700
H2089       H  0.78704698  0.34156028  0.15541821     0.12700
C2090       C  0.79662581  0.40128807  0.16314777     0.62300
F2091       F  0.68389784  0.36260017  0.07615201    -0.22900
F2092       F  0.68068881  0.32787867  0.11249126    -0.20200
F2093       F  0.71204673  0.32088956  0.07270368    -0.19900
F2094       F  0.78325406  0.42259316  0.18166184    -0.20000
F2095       F  0.81829677  0.41490696  0.14519203    -0.20300
F2096       F  0.81125134  0.38067775  0.18155354    -0.23000
C2097       C  0.77220261  0.10496866  0.10640321    -0.05800
C2098       C  0.75082984  0.08971832  0.12427487     0.00100
C2099       C  0.73053581  0.10654448  0.14254578    -0.08500
C2100       C  0.73248277  0.13815614  0.14220777    -0.05800
C2101       C  0.75382930  0.15343274  0.12437540     0.00100
C2102       C  0.77385906  0.13664571  0.10575242    -0.08400
C2103       C  0.79599347  0.15190621  0.08436215     0.62000
H2104       H  0.78744050  0.09173468  0.09253570     0.12700
H2105       H  0.71722755  0.15136114  0.15608385     0.12700
C2106       C  0.70738050  0.09139177  0.16291836     0.62300
F2107       F  0.81043463  0.13137320  0.06571394    -0.22900
F2108       F  0.81804590  0.16694775  0.10068049    -0.20200
F2109       F  0.78063003  0.17214055  0.06616907    -0.19900
F2110       F  0.72159110  0.07037079  0.18113600    -0.20000
F2111       F  0.68549057  0.07732789  0.14551868    -0.20300
F2112       F  0.69285229  0.11186410  0.18154994    -0.23000
C2113       C  0.98058290  0.26420761  0.23231786    -0.05800
C2114       C  0.49814883  0.24230721  0.21735667     0.00100
C2115       C  0.51382298  0.22014015  0.23435003    -0.08500
C2116       C  0.51206236  0.22115403  0.26608778    -0.05800
C2117       C  0.49508447  0.24324644  0.28123776     0.00100
C2118       C  0.97864362  0.26510793  0.26405114    -0.08400
C2119       C  0.95799481  0.28816284  0.27885202     0.62000
H2120       H  0.96859049  0.28074117  0.21886103     0.12700
H2121       H  0.52434308  0.20476021  0.27942561     0.12700
C2122       C  0.53139913  0.19483910  0.21923402     0.62300
F2123       F  0.94064681  0.30355777  0.25782323    -0.22900
F2124       F  0.97507367  0.30909506  0.29452833    -0.20200
F2125       F  0.93836333  0.27379355  0.29844734    -0.19900
F2126       F  0.55630368  0.20629486  0.20419934    -0.20000
F2127       F  0.51289547  0.17999822  0.19888647    -0.20300
F2128       F  0.54171770  0.17386137  0.23997390    -0.23000
C2129       C  0.03073336  0.26764983  0.01801213    -0.05800
C2130       C  0.00726957  0.25071188  0.03123619     0.00100
C2131       C  0.48655795  0.23501553  0.01247335    -0.08500
C2132       C  0.48943463  0.23785249  0.98103489    -0.05800
C2133       C  0.01240343  0.25543147  0.96764777     0.00100
C2134       C  0.03355378  0.27064844  0.98643387    -0.08400
C2135       C  0.05827204  0.29075292  0.97353578     0.62000
H2136       H  0.04674020  0.27891498  0.03272336     0.12700
H2137       H  0.47359442  0.22618039  0.96641932     0.12700
C2138       C  0.46185522  0.21476829  0.02517746     0.62300
F2139       F  0.07384009  0.30607621  0.99598020    -0.22900
F2140       F  0.04556094  0.31189704  0.95438067    -0.20200
F2141       F  0.57902557  0.27323353  0.95767542    -0.19900
F2142       F  0.93974127  0.23225308  0.03882972    -0.20000
F2143       F  0.47418787  0.19492242  0.04591145    -0.20300
F2144       F  0.44789447  0.19789236  0.00281745    -0.23000
C2145       C  0.97419479  0.48698308  0.23002646    -0.05800
C2146       C  0.49809534  0.50182694  0.21546266     0.00100
C2147       C  0.51976476  0.01701025  0.23417425    -0.08500
C2148       C  0.51596363  0.01782764  0.26574561    -0.05800
C2149       C  0.49185740  0.50432426  0.27896012     0.00100
C2150       C  0.97043668  0.48820168  0.26152884    -0.08400
C2151       C  0.94302517  0.47333218  0.27601668     0.62000
H2152       H  0.95837613  0.47405805  0.21649065     0.12700
H2153       H  0.53216913  0.02977075  0.27974440     0.12700
C2154       C  0.54591344  0.03426972  0.22001567     0.62300
F2155       F  0.92254699  0.46309168  0.25459488    -0.22900
F2156       F  0.92812407  0.49387389  0.29424808    -0.20200
F2157       F  0.95212128  0.44902469  0.29325028    -0.19900
F2158       F  0.53511024  0.05315906  0.19760379    -0.20000
F2159       F  0.56662281  0.01430744  0.20780927    -0.20300
F2160       F  0.56106607  0.05186547  0.24100886    -0.23000
C2161       C  0.98039255  0.01385922  0.98098570    -0.05800
C2162       C  0.50597432  0.50315753  0.96536268     0.00100
C2163       C  0.52984602  0.48987333  0.98233601    -0.08500
C2164       C  0.52712287  0.48856078  0.01397497    -0.05800
C2165       C  0.50094378  0.99909640  0.02986443     0.00100
C2166       C  0.97705410  0.01199892  0.01253181    -0.08400
C2167       C  0.94810379  0.02415699  0.02679346     0.62000
H2168       H  0.96246810  0.02385522  0.96760258     0.12700
H2169       H  0.54533294  0.47887273  0.02720694     0.12700
C2170       C  0.55764926  0.47609113  0.96742363     0.62300
F2171       F  0.92920745  0.03762246  0.00574726    -0.22900
F2172       F  0.45508722  0.04548126  0.04845508    -0.20200
F2173       F  0.93201460  0.00085644  0.03993305    -0.19900
F2174       F  0.57498532  0.49842096  0.95418168    -0.20000
F2175       F  0.04866250  0.45526537  0.94574698    -0.20300
F2176       F  0.57588763  0.46112970  0.98800142    -0.23000
C2177       C  0.98076994  0.35547809  0.14009490    -0.05800
C2178       C  0.50447390  0.34031354  0.12542872     0.00100
C2179       C  0.52615204  0.35744710  0.10909586    -0.08500
C2180       C  0.52394125  0.38909611  0.10948492    -0.05800
C2181       C  0.50025297  0.40414841  0.12446884     0.00100
C2182       C  0.97798319  0.38705755  0.13974546    -0.08400
C2183       C  0.95137452  0.40158293  0.15602046     0.62000
H2184       H  0.96404327  0.34204948  0.15190361     0.12700
H2185       H  0.54058866  0.40244266  0.09747052     0.12700
C2186       C  0.55060909  0.34257043  0.09007424     0.62300
F2187       F  0.93441129  0.38075216  0.17200692    -0.22900
F2188       F  0.93228708  0.41507620  0.13522934    -0.20200
F2189       F  0.96183427  0.42288997  0.17632199    -0.19900
F2190       F  0.53752534  0.32173400  0.07083862    -0.20000
F2191       F  0.57144034  0.32836759  0.10857552    -0.20300
F2192       F  0.56613987  0.36321802  0.07248477    -0.23000
C2193       C  0.52280794  0.13903197  0.10697451    -0.05800
C2194       C  0.49908867  0.15417143  0.12175421     0.00100
C2195       C  0.97569356  0.13722768  0.13585971    -0.08500
C2196       C  0.97780046  0.10561283  0.13546244    -0.05800
C2197       C  0.50181703  0.09035948  0.12109084     0.00100
C2198       C  0.52440954  0.10739694  0.10588667    -0.08400
C2199       C  0.54959180  0.09259124  0.08770733     0.62000
H2200       H  0.54013312  0.15233314  0.09591585     0.12700
H2201       H  0.96049966  0.09227578  0.14650294     0.12700
C2202       C  0.94865947  0.15183063  0.15142120     0.62300
F2203       F  0.56589455  0.11338067  0.07099250    -0.22900
F2204       F  0.53733237  0.07192212  0.06771544    -0.20200
F2205       F  0.56965970  0.07823652  0.10692135    -0.19900
F2206       F  0.93048437  0.16574287  0.13012037    -0.20000
F2207       F  0.95838384  0.17284008  0.17233562    -0.20300
F2208       F  0.93098843  0.13096679  0.16659447    -0.23000
O2209       O  0.52613018  0.54251430  0.12183848    -0.73000
O2210       O  0.52496340  0.95178576  0.12430940    -0.74000
O2211       O  0.52579909  0.99670303  0.07805511    -0.62600
O2212       O  0.52491756  0.49845578  0.16824111    -0.71000
O2213       O  0.97476399  0.49912618  0.16705650    -0.70500
O2214       O  0.97574811  0.99697647  0.07791855    -0.61800
O2215       O  0.97486011  0.95249395  0.12425282    -0.74300
O2216       O  0.97607576  0.54287084  0.12064648    -0.73100
Cu2217     Cu  0.52728887  0.99700916  0.12355504     1.04600
Cu2218     Cu  0.97392576  0.49770459  0.12197066     1.04300
C2219       C  0.50117013  0.55702823  0.12062579     0.93200
C2220       C  0.49965520  0.93773467  0.12505895     0.92400
C2221       C  0.50107400  0.49730198  0.06274095     0.84500
C2222       C  0.49965028  0.99910347  0.18300362     0.90800
O2223       O  0.52441736  0.70128809  0.12653556    -0.73000
O2224       O  0.52770042  0.79194449  0.13059031    -0.74000
O2225       O  0.52307384  0.74436831  0.17398932    -0.62600
O2226       O  0.52971426  0.74848471  0.08359285    -0.71000
O2227       O  0.97965824  0.75062235  0.08058099    -0.70500
O2228       O  0.97300613  0.74661210  0.17102795    -0.61800
O2229       O  0.97766672  0.79373835  0.12764757    -0.74300
O2230       O  0.97451626  0.70363760  0.12332760    -0.73100
Cu2231     Cu  0.52798689  0.74649474  0.12889346     1.04600
Cu2232     Cu  0.97449461  0.74874288  0.12557690     1.04300
C2233       C  0.99885109  0.68811367  0.12410742     0.93200
C2234       C  0.00323375  0.80723373  0.12897800     0.92400
C2235       C  0.99728676  0.74450328  0.18669007     0.84500
C2236       C  0.00556117  0.74982198  0.06768910     0.90800
O2237       O  0.77476787  0.49685659  0.17150347    -0.73000
O2238       O  0.77756305  0.49730136  0.08073294    -0.74000
O2239       O  0.77599693  0.54212067  0.12624439    -0.62600
O2240       O  0.77841367  0.95195590  0.12580979    -0.71000
O2241       O  0.72830001  0.95092653  0.12307143    -0.70500
O2242       O  0.72574121  0.54157126  0.12484862    -0.61800
O2243       O  0.72932893  0.99640687  0.07769838    -0.74300
O2244       O  0.72477440  0.99639583  0.16775559    -0.73100
Cu2245     Cu  0.77797251  0.49691253  0.12614823     1.04600
Cu2246     Cu  0.72551544  0.99620294  0.12267982     1.04300
C2247       C  0.74908390  0.49650738  0.18492005     0.93200
C2248       C  0.75493179  0.99728507  0.06433579     0.92400
C2249       C  0.75069277  0.55616754  0.12584874     0.84500
C2250       C  0.75365932  0.93702776  0.12504701     0.90800
O2251       O  0.77544158  0.74652236  0.17307502    -0.73000
O2252       O  0.78044829  0.74710640  0.08292365    -0.74000
O2253       O  0.77681107  0.79209627  0.12820426    -0.62600
O2254       O  0.77860422  0.70136734  0.12746872    -0.71000
O2255       O  0.72836508  0.70043373  0.12513869    -0.70500
O2256       O  0.72672701  0.79072349  0.12555975    -0.61800
O2257       O  0.73024631  0.74572373  0.08006375    -0.74300
O2258       O  0.72513820  0.74528900  0.17073242    -0.73100
Cu2259     Cu  0.77956845  0.74676727  0.12805618     1.04600
Cu2260     Cu  0.72586708  0.74550076  0.12528918     1.04300
C2261       C  0.74965234  0.74618416  0.18614403     0.93200
C2262       C  0.75619604  0.74675325  0.06719964     0.92400
C2263       C  0.75133676  0.80584259  0.12664388     0.84500
C2264       C  0.75375994  0.68659329  0.12589326     0.90800
O2265       O  0.53169938  0.96249402  0.87152322    -0.73000
O2266       O  0.52988238  0.55243539  0.87271222    -0.74000
O2267       O  0.53084611  0.50665829  0.91710504    -0.62600
O2268       O  0.53042817  0.00848870  0.82698537    -0.71000
O2269       O  0.98003754  0.00800794  0.82787500    -0.70500
O2270       O  0.98076302  0.50518225  0.91769126    -0.61800
O2271       O  0.97974569  0.55204227  0.87404458    -0.74300
O2272       O  0.98139228  0.96140034  0.87191388    -0.73100
Cu2273     Cu  0.53207390  0.50750690  0.87179570     1.04600
Cu2274     Cu  0.97910884  0.00687762  0.87307562     1.04300
C2275       C  0.00682167  0.94746017  0.87141278     0.93200
C2276       C  0.00484837  0.56652032  0.87415776     0.92400
C2277       C  0.00656652  0.00504294  0.93237816     0.84500
C2278       C  0.00408808  0.50755987  0.81269010     0.90800
O2279       O  0.53679406  0.75795519  0.92198916    -0.73000
O2280       O  0.53245607  0.75651873  0.83104253    -0.74000
O2281       O  0.53330318  0.80292772  0.87587600    -0.62600
O2282       O  0.53577028  0.71206444  0.87699550    -0.71000
O2283       O  0.98569950  0.71085286  0.87921224    -0.70500
O2284       O  0.98309150  0.80110855  0.87797931    -0.61800
O2285       O  0.98235597  0.75511423  0.83354352    -0.74300
O2286       O  0.98658998  0.75649833  0.92361851    -0.73100
Cu2287     Cu  0.53638789  0.75750413  0.87641500     1.04600
Cu2288     Cu  0.98277406  0.75593082  0.87869132     1.04300
C2289       C  0.01220099  0.75698812  0.93715570     0.93200
C2290       C  0.00661774  0.75486410  0.81787777     0.92400
C2291       C  0.00755557  0.81642089  0.87679340     0.84500
C2292       C  0.01110628  0.69705739  0.87792314     0.90800
O2293       O  0.78169260  0.95582413  0.87149002    -0.73000
O2294       O  0.78271652  0.54639015  0.87458142    -0.74000
O2295       O  0.78438905  0.50114982  0.91971194    -0.62600
O2296       O  0.77938064  0.00291758  0.82792242    -0.71000
O2297       O  0.72914494  0.00234133  0.82973736    -0.70500
O2298       O  0.73424258  0.49978813  0.92041855    -0.61800
O2299       O  0.73258424  0.54585347  0.87620406    -0.74300
O2300       O  0.73140569  0.95503332  0.87272949    -0.73100
Cu2301     Cu  0.78533105  0.50125597  0.87429514     1.04600
Cu2302     Cu  0.72889515  0.00044637  0.87487143     1.04300
C2303       C  0.75678010  0.94112248  0.87140162     0.93200
C2304       C  0.75754837  0.56053856  0.87595937     0.92400
C2305       C  0.75741645  0.99820967  0.93373397     0.84500
C2306       C  0.75720186  0.50131322  0.81513364     0.90800
O2307       O  0.78009248  0.74996197  0.83173004    -0.73000
O2308       O  0.78128497  0.74988734  0.92238905    -0.74000
O2309       O  0.77885923  0.70508947  0.87699749    -0.62600
O2310       O  0.78276431  0.79535468  0.87692875    -0.71000
O2311       O  0.73252363  0.79748603  0.87725556    -0.70500
O2312       O  0.72871266  0.70684637  0.87734127    -0.61800
O2313       O  0.73098491  0.75158059  0.92264610    -0.74300
O2314       O  0.72981745  0.75219839  0.83225979    -0.73100
Cu2315     Cu  0.78249490  0.75008104  0.87701862     1.04600
Cu2316     Cu  0.72876099  0.75218800  0.87744454     1.04300
C2317       C  0.75476527  0.75064926  0.81770342     0.93200
C2318       C  0.75616731  0.74983119  0.93679085     0.92400
C2319       C  0.75325078  0.69155405  0.87703997     0.84500
C2320       C  0.75830013  0.81074590  0.87681749     0.90800
O2321       O  0.53684690  0.98129464  0.37242109    -0.73000
O2322       O  0.94588087  0.97969190  0.37432244    -0.74000
O2323       O  0.99050917  0.97921950  0.32820097    -0.62600
O2324       O  0.49205113  0.98118257  0.41880048    -0.71000
O2325       O  0.49255505  0.52857706  0.41754265    -0.70500
O2326       O  0.99126312  0.52956759  0.32658663    -0.61800
O2327       O  0.94671821  0.52752441  0.37299568    -0.74300
O2328       O  0.53701487  0.53120306  0.37128684    -0.73100
Cu2329     Cu  0.99134138  0.97853338  0.37346646     1.04600
Cu2330     Cu  0.49180083  0.53091270  0.37211759     1.04300
C2331       C  0.55223589  0.50683382  0.36988090     0.93200
C2332       C  0.93289070  0.50236135  0.37433654     0.92400
C2333       C  0.49125525  0.50449992  0.31231623     0.84500
C2334       C  0.99381203  0.50355183  0.43169507     0.90800
O2335       O  0.95215950  0.71378504  0.37699048    -0.73000
O2336       O  0.54285493  0.71567812  0.37544612    -0.74000
O2337       O  0.49829639  0.71264991  0.42179769    -0.62600
O2338       O  0.99636289  0.71694164  0.33090735    -0.71000
O2339       O  0.99603810  0.76663397  0.33330161    -0.70500
O2340       O  0.49714012  0.76242349  0.42377748    -0.61800
O2341       O  0.54197471  0.76552844  0.37829128    -0.74300
O2342       O  0.95155907  0.76360809  0.37891199    -0.73100
Cu2343     Cu  0.49748113  0.71306494  0.37626663     1.04600
Cu2344     Cu  0.99669101  0.76620342  0.37861973     1.04300
C2345       C  0.93747661  0.73849814  0.37800760     0.93200
C2346       C  0.55673544  0.74087834  0.37650027     0.92400
C2347       C  0.99788441  0.73691236  0.43713426     0.84500
C2348       C  0.49548891  0.74265739  0.31772398     0.90800
O2349       O  0.74038135  0.98107148  0.32887017    -0.73000
O2350       O  0.73885950  0.98327151  0.41945548    -0.74000
O2351       O  0.69431141  0.98491731  0.37317805    -0.62600
O2352       O  0.78456877  0.97923968  0.37506072    -0.71000
O2353       O  0.78924111  0.52669959  0.37625735    -0.70500
O2354       O  0.69883026  0.53391910  0.37294070    -0.61800
O2355       O  0.74255949  0.53075653  0.41996832    -0.74300
O2356       O  0.74606294  0.52962616  0.32919883    -0.73100
Cu2357     Cu  0.73933515  0.98041840  0.37419279     1.04600
Cu2358     Cu  0.74425657  0.53202379  0.37458622     1.04300
C2359       C  0.74505731  0.50443982  0.31528412     0.93200
C2360       C  0.74087934  0.50601920  0.43455009     0.92400
C2361       C  0.68276228  0.51001970  0.37266857     0.84500
C2362       C  0.80177277  0.50076225  0.37669195     0.90800
O2363       O  0.79180247  0.72021376  0.37630999    -0.73000
O2364       O  0.70133197  0.72131737  0.37761995    -0.74000
O2365       O  0.74590383  0.71979075  0.33185759    -0.62600
O2366       O  0.74751112  0.72168006  0.42233196    -0.71000
O2367       O  0.74828970  0.77150897  0.42176404    -0.70500
O2368       O  0.74621967  0.76955440  0.33084212    -0.61800
O2369       O  0.70179859  0.77126806  0.37725534    -0.74300
O2370       O  0.79254592  0.77004272  0.37541214    -0.73100
Cu2371     Cu  0.74658255  0.71905589  0.37709136     1.04600
Cu2372     Cu  0.74721229  0.77236998  0.37627596     1.04300
C2373       C  0.80657992  0.74492927  0.37547636     0.93200
C2374       C  0.68725799  0.74642989  0.37768847     0.92400
C2375       C  0.74575729  0.74430835  0.31689025     0.84500
C2376       C  0.74860122  0.74671705  0.43644443     0.90800
O2377       O  0.49555099  0.97873186  0.66785329    -0.73000
O2378       O  0.49016777  0.97936877  0.57736754    -0.74000
O2379       O  0.53797277  0.97849393  0.62051430    -0.62600
O2380       O  0.94756081  0.97905768  0.62539098    -0.71000
O2381       O  0.94721384  0.52384911  0.62325203    -0.70500
O2382       O  0.53822578  0.52485348  0.62143362    -0.61800
O2383       O  0.99165793  0.52413622  0.57688991    -0.74300
O2384       O  0.99405222  0.52454844  0.66760655    -0.73100
Cu2385     Cu  0.49276616  0.97723825  0.62270443     1.04600
Cu2386     Cu  0.99270741  0.52609534  0.62221936     1.04300
C2387       C  0.49546522  0.49979074  0.68228941     0.93200
C2388       C  0.99096526  0.49913145  0.56259726     0.92400
C2389       C  0.55257264  0.49987396  0.62182673     0.84500
C2390       C  0.93320321  0.49870120  0.62446698     0.90800
O2391       O  0.99995962  0.71898435  0.58356535    -0.73000
O2392       O  0.00213552  0.72344951  0.67420357    -0.74000
O2393       O  0.95556329  0.72177555  0.62953284    -0.62600
O2394       O  0.54646698  0.72114377  0.62804877    -0.71000
O2395       O  0.54606553  0.77097282  0.62554687    -0.70500
O2396       O  0.95603161  0.77159025  0.62735718    -0.61800
O2397       O  0.50264300  0.77335941  0.67179217    -0.74300
O2398       O  0.49993341  0.76871533  0.58140438    -0.73100
Cu2399     Cu  0.00100925  0.71954568  0.62896147     1.04600
Cu2400     Cu  0.50115311  0.77283762  0.62649126     1.04300
C2401       C  0.99922074  0.74325968  0.56809606     0.93200
C2402       C  0.50336185  0.74912548  0.68726190     0.92400
C2403       C  0.94140537  0.74680522  0.62805122     0.84500
C2404       C  0.56058895  0.74621639  0.62631239     0.90800
O2405       O  0.69771908  0.97959704  0.62416535    -0.73000
O2406       O  0.78877730  0.97978736  0.62548097    -0.74000
O2407       O  0.74278465  0.97993483  0.67003331    -0.62600
O2408       O  0.74364499  0.97915638  0.57958712    -0.71000
O2409       O  0.74259855  0.52439269  0.58018091    -0.70500
O2410       O  0.74473202  0.52422966  0.67086806    -0.61800
O2411       O  0.78862082  0.52381537  0.62454814    -0.74300
O2412       O  0.69826852  0.52548111  0.62593199    -0.73100
Cu2413     Cu  0.74323105  0.97786424  0.62486874     1.04600
Cu2414     Cu  0.74354444  0.52619242  0.62545897     1.04300
C2415       C  0.68334008  0.50091620  0.62510953     0.93200
C2416       C  0.80270982  0.49877595  0.62433092     0.92400
C2417       C  0.74451452  0.49915830  0.68503273     0.84500
C2418       C  0.74204105  0.49946550  0.56571458     0.90800
O2419       O  0.74921445  0.77546114  0.58221172    -0.73000
O2420       O  0.74981369  0.77551144  0.67257824    -0.74000
O2421       O  0.79511868  0.77713115  0.62711032    -0.62600
O2422       O  0.70435346  0.77314775  0.62780706    -0.71000
O2423       O  0.70661861  0.72327564  0.62806947    -0.70500
O2424       O  0.79676739  0.72732434  0.62705973    -0.61800
O2425       O  0.75203502  0.72569774  0.67294783    -0.74300
O2426       O  0.75110421  0.72567844  0.58190811    -0.73100
Cu2427     Cu  0.74957965  0.77704632  0.62742176     1.04600
Cu2428     Cu  0.75174828  0.72375311  0.62747771     1.04300
C2429       C  0.74970600  0.75069902  0.56763349     0.93200
C2430       C  0.75058412  0.75076088  0.68713020     0.92400
C2431       C  0.81036238  0.75269987  0.62709785     0.84500
C2432       C  0.69119038  0.74751316  0.62835872     0.90800
C2433       C  0.89344682  0.77197671  0.64152853    -0.05800
C2434       C  0.90786056  0.74763087  0.62724093     0.00100
C2435       C  0.89016799  0.72600349  0.61154140    -0.08500
C2436       C  0.85847854  0.72911206  0.61175609    -0.05800
C2437       C  0.84397237  0.75304945  0.62665755     0.00100
C2438       C  0.86172395  0.77519809  0.64158385    -0.08400
C2439       C  0.84759171  0.80164283  0.65824567     0.62000
H2440       H  0.90739339  0.78846969  0.65303858     0.12700
H2441       H  0.84461153  0.71261169  0.60015818     0.12700
C2442       C  0.90434703  0.70015932  0.59395480     0.62300
F2443       F  0.86912867  0.81871438  0.67330504    -0.22900
F2444       F  0.82703422  0.79125901  0.67942499    -0.20200
F2445       F  0.83300182  0.82034491  0.63792708    -0.19900
F2446       F  0.91775881  0.68005418  0.61370604    -0.20000
F2447       F  0.92590783  0.71114795  0.57410779    -0.20300
F2448       F  0.88301257  0.68447312  0.57718313    -0.23000
C2449       C  0.60931987  0.72622939  0.64470778    -0.05800
C2450       C  0.59400665  0.74665526  0.62594009     0.00100
C2451       C  0.61076239  0.76707419  0.60783358    -0.08500
C2452       C  0.64249078  0.76648871  0.60960649    -0.05800
C2453       C  0.65781908  0.74613528  0.62834250     0.00100
C2454       C  0.64113270  0.72572818  0.64651764    -0.08400
C2455       C  0.65651388  0.70433645  0.66854779     0.62000
H2456       H  0.59604587  0.71093941  0.65842262     0.12700
H2457       H  0.65570179  0.78207864  0.59623135     0.12700
C2458       C  0.59557408  0.78904346  0.58623634     0.62300
F2459       F  0.63575526  0.69017240  0.68722361    -0.22900
F2460       F  0.67656158  0.72004247  0.68673050    -0.20200
F2461       F  0.67206466  0.68231146  0.65284366    -0.19900
F2462       F  0.58100889  0.81139261  0.60243135    -0.20000
F2463       F  0.57477675  0.77401389  0.56827749    -0.20300
F2464       F  0.61636275  0.80281667  0.56730292    -0.23000
C2465       C  0.85137490  0.98934798  0.64760641    -0.05800
C2466       C  0.83606069  0.49880249  0.62365037     0.00100
C2467       C  0.85257590  0.51351108  0.60051362    -0.08500
C2468       C  0.88441466  0.51286934  0.60165846    -0.05800
C2469       C  0.89984164  0.49837874  0.62519632     0.00100
C2470       C  0.88323385  0.98871384  0.64922315    -0.08400
C2471       C  0.89873882  0.97236329  0.67511880     0.62000
H2472       H  0.83794201  0.97755325  0.66432201     0.12700
H2473       H  0.89761696  0.52361933  0.58407423     0.12700
C2474       C  0.83671549  0.52921129  0.57441272     0.62300
F2475       F  0.87807230  0.96214900  0.69632113    -0.22900
F2476       F  0.91848827  0.49199724  0.68873114    -0.20200
F2477       F  0.91446215  0.94775183  0.66419442    -0.19900
F2478       F  0.82074622  0.55383784  0.58496943    -0.20000
F2479       F  0.81823080  0.01806061  0.56184137    -0.20300
F2480       F  0.85711465  0.53935400  0.55293633    -0.23000
C2481       C  0.60180507  0.51833362  0.60292558    -0.05800
C2482       C  0.58599434  0.49987671  0.62319530     0.00100
C2483       C  0.60262354  0.98462455  0.64253561    -0.08500
C2484       C  0.63445208  0.98575347  0.64196872    -0.05800
C2485       C  0.64990294  0.50169626  0.62395340     0.00100
C2486       C  0.63369132  0.51958566  0.60284046    -0.08400
C2487       C  0.64982701  0.53906860  0.57964011     0.62000
H2488       H  0.58887277  0.53159069  0.58691507     0.12700
H2489       H  0.64750914  0.97208970  0.65750019     0.12700
C2490       C  0.58680039  0.96534104  0.66611381     0.62300
F2491       F  0.62972951  0.55171832  0.55920164    -0.22900
F2492       F  0.67047439  0.02490137  0.56193564    -0.20200
F2493       F  0.66498635  0.56229241  0.59396795    -0.19900
F2494       F  0.57137558  0.94203895  0.65220709    -0.20000
F2495       F  0.56592347  0.48269755  0.68437763    -0.20300
F2496       F  0.60715992  0.95282289  0.68637019    -0.23000
C2497       C  0.73362063  0.77012286  0.48492555    -0.05800
C2498       C  0.74964164  0.74721774  0.47001122     0.00100
C2499       C  0.76624181  0.72591458  0.48733272    -0.08500
C2500       C  0.76561477  0.72812287  0.51904906    -0.05800
C2501       C  0.74924960  0.75077329  0.53401128     0.00100
C2502       C  0.73274562  0.77217681  0.51665328    -0.08400
C2503       C  0.71321333  0.79636562  0.53121673     0.62000
H2504       H  0.72126057  0.78629683  0.47137815     0.12700
H2505       H  0.77815302  0.71204466  0.53255523     0.12700
C2506       C  0.78530649  0.70142006  0.47267567     0.62300
F2507       F  0.69590174  0.81174685  0.51014786    -0.22900
F2508       F  0.73137587  0.81716754  0.54584319    -0.20200
F2509       F  0.69354156  0.78330211  0.55168490    -0.19900
F2510       F  0.80461577  0.71400950  0.45154359    -0.20000
F2511       F  0.76663608  0.68056418  0.45878267    -0.20300
F2512       F  0.80294664  0.68621268  0.49359346    -0.23000
C2513       C  0.75516231  0.52474743  0.51777571    -0.05800
C2514       C  0.74162827  0.49993461  0.53210101     0.00100
C2515       C  0.72915290  0.98039797  0.51367626    -0.08500
C2516       C  0.72863389  0.98341373  0.48203544    -0.05800
C2517       C  0.74104982  0.50560705  0.46820818     0.00100
C2518       C  0.75556489  0.52792126  0.48616646    -0.08400
C2519       C  0.77216285  0.55464020  0.47245948     0.62000
H2520       H  0.76588847  0.54173566  0.53172300     0.12700
H2521       H  0.71842883  0.96582430  0.46847253     0.12700
C2522       C  0.71533726  0.95236581  0.52784281     0.62300
F2523       F  0.78775894  0.57112304  0.49403926    -0.22900
F2524       F  0.75155035  0.57372497  0.45874438    -0.20200
F2525       F  0.79166323  0.04962160  0.44995674    -0.19900
F2526       F  0.69848599  0.43200195  0.50624171    -0.20000
F2527       F  0.69378148  0.96044561  0.54905150    -0.20300
F2528       F  0.73786048  0.93544527  0.54146079    -0.23000
C2529       C  0.48160342  0.75969107  0.48540884    -0.05800
C2530       C  0.99743615  0.73636498  0.47074838     0.00100
C2531       C  0.01265468  0.71438743  0.48848078    -0.08500
C2532       C  0.01254596  0.71756712  0.52016883    -0.05800
C2533       C  0.99770607  0.74159941  0.53460676     0.00100
C2534       C  0.48109409  0.76256919  0.51701255    -0.08400
C2535       C  0.46240962  0.78767588  0.53115154     0.62000
H2536       H  0.46955488  0.77594984  0.47167576     0.12700
H2537       H  0.02448294  0.70134681  0.53403712     0.12700
C2538       C  0.02950258  0.68807078  0.47434067     0.62300
F2539       F  0.44403494  0.80183685  0.51011861    -0.22900
F2540       F  0.48147523  0.80916843  0.54345090    -0.20200
F2541       F  0.44377413  0.77610342  0.55345527    -0.19900
F2542       F  0.05053576  0.69854375  0.45367547    -0.20000
F2543       F  0.00909214  0.66919615  0.46000026    -0.20300
F2544       F  0.04491207  0.67119028  0.49571126    -0.23000
C2545       C  0.89002168  0.76261362  0.36182006    -0.05800
C2546       C  0.90396128  0.73866305  0.37716115     0.00100
C2547       C  0.88578270  0.71664656  0.39163904    -0.08500
C2548       C  0.85410695  0.71971912  0.39025823    -0.05800
C2549       C  0.84014511  0.74397150  0.37534129     0.00100
C2550       C  0.85837594  0.76577045  0.36053166    -0.08400
C2551       C  0.84494979  0.79213570  0.34316110     0.62000
H2552       H  0.90430577  0.77912188  0.35080863     0.12700
H2553       H  0.83986785  0.70317639  0.40125823     0.12700
C2554       C  0.89939499  0.69054255  0.40925812     0.62300
F2555       F  0.86677091  0.80742332  0.32669274    -0.22900
F2556       F  0.83203815  0.81232418  0.36316524    -0.15400
F2557       F  0.82317864  0.78200881  0.32302996    -0.19900
F2558       F  0.91981635  0.70129997  0.43043762    -0.20000
F2559       F  0.91402581  0.67108382  0.38971100    -0.20300
F2560       F  0.87745504  0.67420166  0.42450090    -0.23000
C2561       C  0.60462106  0.76084274  0.39702339    -0.05800
C2562       C  0.59015268  0.74181627  0.37616867     0.00100
C2563       C  0.60766016  0.72512291  0.35520538    -0.08500
C2564       C  0.63938822  0.72755453  0.35647460    -0.05800
C2565       C  0.65385618  0.74634696  0.37748389     0.00100
C2566       C  0.63637945  0.76336213  0.39818074    -0.08400
C2567       C  0.65110423  0.78324059  0.42198449     0.62000
H2568       H  0.59074238  0.77353860  0.41269201     0.12700
H2569       H  0.65327065  0.71471189  0.34095847     0.12700
C2570       C  0.59309875  0.70537397  0.33117601     0.62300
F2571       F  0.63003688  0.79462023  0.44217426    -0.22900
F2572       F  0.66541173  0.80730457  0.40824822    -0.20200
F2573       F  0.67214450  0.76676915  0.43825468    -0.19900
F2574       F  0.57105154  0.72141419  0.31579464    -0.20000
F2575       F  0.58009109  0.68041778  0.34458182    -0.20300
F2576       F  0.61410547  0.69538672  0.31018933    -0.23000
C2577       C  0.96888940  0.99057545  0.48087289    -0.05800
C2578       C  0.99344960  0.50304744  0.46522102     0.00100
C2579       C  0.51140675  0.52273297  0.48310501    -0.08500
C2580       C  0.50976084  0.52052214  0.51475751    -0.05800
C2581       C  0.99097848  0.49939530  0.52906176     0.00100
C2582       C  0.96718898  0.98949264  0.51262097    -0.08400
C2583       C  0.94082835  0.97338601  0.52768012     0.62000
H2584       H  0.95202181  0.97908154  0.46727502     0.12700
H2585       H  0.52352180  0.53522363  0.52869627     0.12700
C2586       C  0.53317687  0.54512669  0.46893064     0.62300
F2587       F  0.92000387  0.96280649  0.50676539    -0.22900
F2588       F  0.92591341  0.99305065  0.54681675    -0.20200
F2589       F  0.95130595  0.94904200  0.54407137    -0.19900
F2590       F  0.51712276  0.56720203  0.45379996    -0.20000
F2591       F  0.55206220  0.53031008  0.44893694    -0.20300
F2592       F  0.55121738  0.55918284  0.49033179    -0.23000
C2593       C  0.88264093  0.98083892  0.36064731    -0.05800
C2594       C  0.89936841  0.50170403  0.37657037     0.00100
C2595       C  0.88258593  0.52391603  0.39249952    -0.08500
C2596       C  0.85081530  0.52209284  0.39236536    -0.05800
C2597       C  0.83531064  0.49883402  0.37745112     0.00100
C2598       C  0.85079589  0.97897186  0.36021854    -0.08400
C2599       C  0.83565850  0.95309345  0.34344670     0.62000
H2600       H  0.89599270  0.96382513  0.34924062     0.12700
H2601       H  0.83767104  0.53920629  0.40385662     0.12700
C2602       C  0.89774715  0.54924779  0.41009759     0.62300
F2603       F  0.85643229  0.93592537  0.32752480    -0.22900
F2604       F  0.82159556  0.43189605  0.36707774    -0.20200
F2605       F  0.81469905  0.96408467  0.32295652    -0.19900
F2606       F  0.91076191  0.56956253  0.39031307    -0.20000
F2607       F  0.91730794  0.04128108  0.42767344    -0.20300
F2608       F  0.87722148  0.56489923  0.42782478    -0.23000
C2609       C  0.60018971  0.52780277  0.38935822    -0.05800
C2610       C  0.58564367  0.50848525  0.36883906     0.00100
C2611       C  0.60151196  0.98899028  0.35117600    -0.08500
C2612       C  0.63324734  0.99138772  0.35211688    -0.05800
C2613       C  0.64942344  0.51184139  0.37099253     0.00100
C2614       C  0.63197509  0.52972464  0.39099218    -0.08400
C2615       C  0.64666815  0.54981437  0.41465331     0.62000
H2616       H  0.58636765  0.54110015  0.40450621     0.12700
H2617       H  0.64700863  0.97707753  0.33779156     0.12700
C2618       C  0.58679131  0.96726890  0.32903536     0.62300
F2619       F  0.62537361  0.56290199  0.43353912    -0.22900
F2620       F  0.66258866  0.57270141  0.40065327    -0.20200
F2621       F  0.66628521  0.53306866  0.43235234    -0.19900
F2622       F  0.56491282  0.98206129  0.31223249    -0.20000
F2623       F  0.57355457  0.94373116  0.34461613    -0.20300
F2624       F  0.60771349  0.95523439  0.30907172    -0.23000
C2625       C  0.76876534  0.72977679  0.73553265    -0.05800
C2626       C  0.75049930  0.75099908  0.72062172     0.00100
C2627       C  0.73267286  0.77136754  0.73789915    -0.08500
C2628       C  0.73479678  0.77033397  0.76958608    -0.05800
C2629       C  0.75403160  0.74995005  0.78435009     0.00100
C2630       C  0.77091470  0.72886375  0.76721507    -0.08400
C2631       C  0.79060933  0.70507801  0.78219075     0.62000
H2632       H  0.78196833  0.71421522  0.72205214     0.12700
H2633       H  0.72177293  0.78593056  0.78321153     0.12700
C2634       C  0.71098796  0.79371391  0.72333489     0.62300
F2635       F  0.80113646  0.68409385  0.76157454    -0.22900
F2636       F  0.77404968  0.68983629  0.80388185    -0.20200
F2637       F  0.81548469  0.71857868  0.79559141    -0.19900
F2638       F  0.69228504  0.77906274  0.70297693    -0.20000
F2639       F  0.72722428  0.81585655  0.70852610    -0.20300
F2640       F  0.69263099  0.80768869  0.74450109    -0.23000
C2641       C  0.72859283  0.98789318  0.76716260    -0.05800
C2642       C  0.75561278  0.50057449  0.78161802     0.00100
C2643       C  0.77663449  0.51557956  0.76250885    -0.08500
C2644       C  0.77179036  0.51475019  0.73106441    -0.05800
C2645       C  0.74734456  0.49900767  0.71827786     0.00100
C2646       C  0.72448936  0.98782232  0.73568173    -0.08400
C2647       C  0.69800438  0.97062794  0.72202147     0.62000
H2648       H  0.71364553  0.97462071  0.78127648     0.12700
H2649       H  0.78743795  0.52606085  0.71599753     0.12700
C2650       C  0.80368221  0.53287426  0.77491714     0.62300
F2651       F  0.67902680  0.95892322  0.74399699    -0.22900
F2652       F  0.70853174  0.94691821  0.70473877    -0.20200
F2653       F  0.68101409  0.98977547  0.70410766    -0.19900
F2654       F  0.82382722  0.51314317  0.78839953    -0.20000
F2655       F  0.79401356  0.55387849  0.79589421    -0.20300
F2656       F  0.81918750  0.54809072  0.75241014    -0.23000
C2657       C  0.77803535  0.89334364  0.89069748    -0.05800
C2658       C  0.75765620  0.90772826  0.87105574     0.00100
C2659       C  0.73934962  0.89007863  0.85155490    -0.08500
C2660       C  0.74005271  0.85850982  0.85453325    -0.05800
C2661       C  0.75954053  0.84412104  0.87510978     0.00100
C2662       C  0.77947288  0.86177172  0.89306244    -0.08400
C2663       C  0.80171364  0.84759903  0.91510232     0.62000
H2664       H  0.79288953  0.90717621  0.90437347     0.12700
H2665       H  0.72567234  0.84467895  0.84030568     0.12700
C2666       C  0.72074229  0.90431222  0.82644315     0.62300
F2667       F  0.81616850  0.86899257  0.93277277    -0.22900
F2668       F  0.82376028  0.83199101  0.89935416    -0.20200
F2669       F  0.78654437  0.82811279  0.93419344    -0.19900
F2670       F  0.73897640  0.92332428  0.80961379    -0.20000
F2671       F  0.69688967  0.92051497  0.83849296    -0.20300
F2672       F  0.70884738  0.88287115  0.80702899    -0.23000
C2673       C  0.73148814  0.60883744  0.86483371    -0.05800
C2674       C  0.75698813  0.59410220  0.87695892     0.00100
C2675       C  0.78056008  0.61163562  0.89009769    -0.08500
C2676       C  0.77788256  0.64318737  0.88985665    -0.05800
C2677       C  0.75268556  0.65797560  0.87724187     0.00100
C2678       C  0.72882886  0.64046474  0.86459828    -0.08400
C2679       C  0.70098570  0.65473120  0.85019394     0.62000
H2680       H  0.71359227  0.59523176  0.85508499     0.12700
H2681       H  0.79578546  0.65673423  0.89967334     0.12700
C2682       C  0.80827468  0.59750597  0.90493012     0.62300
F2683       F  0.68235646  0.63353807  0.83665485    -0.22900
F2684       F  0.70978858  0.67499005  0.82814359    -0.20200
F2685       F  0.68407623  0.66940720  0.87200367    -0.19900
F2686       F  0.82616193  0.58383555  0.88324435    -0.20000
F2687       F  0.79925842  0.57645799  0.92614024    -0.20300
F2688       F  0.82604460  0.61866145  0.91963317    -0.23000
C2689       C  0.98214944  0.73631706  0.73700955    -0.05800
C2690       C  0.50502930  0.75067775  0.72052474     0.00100
C2691       C  0.52895901  0.76548982  0.73586332    -0.08500
C2692       C  0.52846470  0.76638665  0.76763480    -0.05800
C2693       C  0.50500065  0.75293901  0.78439753     0.00100
C2694       C  0.98152614  0.73713465  0.76878311    -0.08400
C2695       C  0.95609255  0.72080557  0.78522245     0.62000
H2696       H  0.96433524  0.72486832  0.72463084     0.12700
H2697       H  0.54643577  0.77792300  0.77967558     0.12700
C2698       C  0.55547493  0.77925263  0.71883060     0.62300
F2699       F  0.93844138  0.70384256  0.76569129    -0.22900
F2700       F  0.93727205  0.74149428  0.79913699    -0.20200
F2701       F  0.96810839  0.70143960  0.80658966    -0.19900
F2702       F  0.54550378  0.80286248  0.70109872    -0.20000
F2703       F  0.56876953  0.75763730  0.70064317    -0.20300
F2704       F  0.57751954  0.79026840  0.73822244    -0.23000
C2705       C  0.00324764  0.52862306  0.72980476    -0.05800
C2706       C  0.49820466  0.50042752  0.71603725     0.00100
C2707       C  0.49774161  0.97676883  0.73460486    -0.08500
C2708       C  0.49973637  0.97972027  0.76620596    -0.05800
C2709       C  0.50309542  0.50607639  0.77959479     0.00100
C2710       C  0.00594514  0.53181816  0.76130699    -0.08400
C2711       C  0.01149952  0.56252571  0.77533545     0.62000
H2712       H  0.00523026  0.54845336  0.71575992     0.12700
H2713       H  0.49799746  0.96009546  0.78062064     0.12700
C2714       C  0.49394764  0.94532440  0.72145857     0.62300
F2715       F  0.01342291  0.58496498  0.75373091    -0.22900
F2716       F  0.03844441  0.56212844  0.79138134    -0.20200
F2717       F  0.98797732  0.56958704  0.79475952    -0.19900
F2718       F  0.49261493  0.92343578  0.74368698    -0.20000
F2719       F  0.51839682  0.93853419  0.70310011    -0.20300
F2720       F  0.46727543  0.94367627  0.70506550    -0.23000
C2721       C  0.98451543  0.89894507  0.88790174    -0.05800
C2722       C  0.00747586  0.91390078  0.87182999     0.00100
C2723       C  0.53048570  0.89669157  0.85728624    -0.08500
C2724       C  0.52951745  0.86507242  0.85971312    -0.05800
C2725       C  0.00640502  0.84999615  0.87575894     0.00100
C2726       C  0.98355255  0.86732398  0.89035625    -0.08400
C2727       C  0.95870320  0.85291851  0.90929806     0.62000
H2728       H  0.96737069  0.91241571  0.89903438     0.12700
H2729       H  0.54673055  0.85164786  0.84863046     0.12700
C2730       C  0.55530753  0.91117200  0.83836752     0.62300
F2731       F  0.94157650  0.87417081  0.92455854    -0.22900
F2732       F  0.97146710  0.83396287  0.93060656    -0.20200
F2733       F  0.93920975  0.83677449  0.89091562    -0.19900
F2734       F  0.57514351  0.92679202  0.85684410    -0.20000
F2735       F  0.54256562  0.93064994  0.81753025    -0.20300
F2736       F  0.57202604  0.89000191  0.82255940    -0.23000
C2737       C  0.52786185  0.61491189  0.85886485    -0.05800
C2738       C  0.00550370  0.59994922  0.87565540     0.00100
C2739       C  0.98599556  0.61704836  0.89450800    -0.08500
C2740       C  0.98900318  0.64862428  0.89474932    -0.05800
C2741       C  0.01123939  0.66355262  0.87759733     0.00100
C2742       C  0.53130092  0.64640959  0.85956676    -0.08400
C2743       C  0.55607512  0.66092361  0.84065315     0.62000
H2744       H  0.54290354  0.60147088  0.84500644     0.12700
H2745       H  0.97392258  0.66203932  0.90860107     0.12700
C2746       C  0.96279373  0.60221808  0.91507102     0.62300
F2747       F  0.57098400  0.64013486  0.82267578    -0.22900
F2748       F  0.57741656  0.67408362  0.85940495    -0.20200
F2749       F  0.54364245  0.68253226  0.82186001    -0.19900
F2750       F  0.97672397  0.58039478  0.93254491    -0.20000
F2751       F  0.94008673  0.58918994  0.89791203    -0.20300
F2752       F  0.94939146  0.62275250  0.93446719    -0.23000
C2753       C  0.73436558  0.72209941  0.23391883    -0.05800
C2754       C  0.74823672  0.74646168  0.21940624     0.00100
C2755       C  0.76055509  0.77029932  0.23667957    -0.08500
C2756       C  0.75903545  0.76859285  0.26834543    -0.05800
C2757       C  0.74585172  0.74384832  0.28321990     0.00100
C2758       C  0.73313652  0.72006215  0.26565093    -0.08400
C2759       C  0.71808439  0.69271531  0.27985512     0.62000
H2760       H  0.72509783  0.70423115  0.22001769     0.12700
H2761       H  0.76863905  0.78659830  0.28180286     0.12700
C2762       C  0.77438793  0.79784554  0.22168999     0.62300
F2763       F  0.69598793  0.70183159  0.30004478    -0.22900
F2764       F  0.73959448  0.67551127  0.29467905    -0.20200
F2765       F  0.70427400  0.67451281  0.25846510    -0.19900
F2766       F  0.75348647  0.81060944  0.20219367    -0.20000
F2767       F  0.80002696  0.78975445  0.20566458    -0.20300
F2768       F  0.78276741  0.81949896  0.24260504    -0.23000
C2769       C  0.73871262  0.72758209  0.01789072    -0.05800
C2770       C  0.75792054  0.74713906  0.03384411     0.00100
C2771       C  0.77738181  0.76689183  0.01773824    -0.08500
C2772       C  0.77624885  0.76676782  0.98598761    -0.05800
C2773       C  0.75636304  0.74787621  0.97010020     0.00100
C2774       C  0.73784046  0.72724990  0.98615132    -0.08400
C2775       C  0.71804418  0.70427726  0.96999375     0.62000
H2776       H  0.72436228  0.71237444  0.03061770     0.12700
H2777       H  0.79069100  0.78181588  0.97320741     0.12700
C2778       C  0.79850499  0.78872700  0.03379584     0.62300
F2779       F  0.70590423  0.68342712  0.98984899    -0.22900
F2780       F  0.73511035  0.68871874  0.94891506    -0.20200
F2781       F  0.69425043  0.71863677  0.95563087    -0.19900
F2782       F  0.82091164  0.77296283  0.04889605    -0.20000
F2783       F  0.78224006  0.80593525  0.05419915    -0.20300
F2784       F  0.81261063  0.80814960  0.01377962    -0.23000
C2785       C  0.76890311  0.51599853  0.23337703    -0.05800
C2786       C  0.74786176  0.49752133  0.21835030     0.00100
C2787       C  0.72448790  0.98268160  0.23379945    -0.08500
C2788       C  0.72408944  0.98579885  0.26543366    -0.05800
C2789       C  0.74672731  0.50325142  0.28193661     0.00100
C2790       C  0.76884669  0.51913147  0.26501864    -0.08400
C2791       C  0.79293112  0.53844387  0.28017808     0.62000
H2792       H  0.78522069  0.52840287  0.21999193     0.12700
H2793       H  0.70715173  0.97402919  0.27864234     0.12700
C2794       C  0.70140327  0.96208979  0.21875086     0.62300
F2795       F  0.81426641  0.54879913  0.25971451    -0.22900
F2796       F  0.77957540  0.56320620  0.29361149    -0.20200
F2797       F  0.80802992  0.52176886  0.30187397    -0.19900
F2798       F  0.71600462  0.94201864  0.19977395    -0.20000
F2799       F  0.68088978  0.97903788  0.20232691    -0.20300
F2800       F  0.68514392  0.94549838  0.23969352    -0.23000
C2801       C  0.74023358  0.01898029  0.98245660    -0.05800
C2802       C  0.75800895  0.99769421  0.96716471     0.00100
C2803       C  0.77496213  0.97631476  0.98392263    -0.08500
C2804       C  0.77997797  0.48777039  0.01768195    -0.05800
C2805       C  0.75588657  0.99852603  0.03096009     0.00100
C2806       C  0.73015581  0.51136027  0.01414915    -0.08400
C2807       C  0.70158854  0.52495233  0.02784842     0.62000
H2808       H  0.71555863  0.52088670  0.96871586     0.12700
H2809       H  0.78662797  0.96127549  0.02897692     0.12700
C2810       C  0.79229127  0.95119408  0.96838940     0.62300
F2811       F  0.68374055  0.53913054  0.00637704    -0.22900
F2812       F  0.70931208  0.54622819  0.04937688    -0.20200
F2813       F  0.69597204  0.03146037  0.04470787    -0.19900
F2814       F  0.82842415  0.49771446  0.95828379    -0.20000
F2815       F  0.77267772  0.93529778  0.94993004    -0.20300
F2816       F  0.80479391  0.93121537  0.98891596    -0.23000
C2817       C  0.73013636  0.88817306  0.11149130    -0.05800
C2818       C  0.75393101  0.90344134  0.12606347     0.00100
C2819       C  0.77617202  0.88641640  0.14188659    -0.08500
C2820       C  0.77434365  0.85474318  0.14125151    -0.05800
C2821       C  0.75068191  0.83945596  0.12642236     0.00100
C2822       C  0.72778646  0.85655194  0.11158853    -0.08400
C2823       C  0.70103765  0.84190053  0.09556126     0.62000
H2824       H  0.71312576  0.90140700  0.09986015     0.12700
H2825       H  0.79143494  0.84153483  0.15281125     0.12700
C2826       C  0.80121344  0.90126084  0.16027792     0.62300
F2827       F  0.68328147  0.86275033  0.08044784    -0.22900
F2828       F  0.68270183  0.82761871  0.11646147    -0.20200
F2829       F  0.71135277  0.82126581  0.07452037    -0.19900
F2830       F  0.78888189  0.92239247  0.17969615    -0.20000
F2831       F  0.82174789  0.91506059  0.14117164    -0.20300
F2832       F  0.81698401  0.88059623  0.17767100    -0.23000
C2833       C  0.77196534  0.60451203  0.10797665    -0.05800
C2834       C  0.75059407  0.58956290  0.12609754     0.00100
C2835       C  0.73048318  0.60666257  0.14432398    -0.08500
C2836       C  0.73252032  0.63826930  0.14356425    -0.05800
C2837       C  0.75393884  0.65321198  0.12552433     0.00100
C2838       C  0.77383026  0.63614725  0.10705069    -0.08400
C2839       C  0.79610386  0.65111077  0.08559150     0.62000
H2840       H  0.78707494  0.59107699  0.09416502     0.12700
H2841       H  0.71738249  0.65171514  0.15733650     0.12700
C2842       C  0.70757759  0.59180257  0.16519985     0.62300
F2843       F  0.81023429  0.63038789  0.06693190    -0.22900
F2844       F  0.81838063  0.66587629  0.10186684    -0.20200
F2845       F  0.78097190  0.67153465  0.06741334    -0.19900
F2846       F  0.72204495  0.57105411  0.18353656    -0.20000
F2847       F  0.68545822  0.57746854  0.14831992    -0.20300
F2848       F  0.69328829  0.61254399  0.18371567    -0.23000
C2849       C  0.98317238  0.76742595  0.23548128    -0.05800
C2850       C  0.49527990  0.74279894  0.22003732     0.00100
C2851       C  0.50600599  0.71764695  0.23643028    -0.08500
C2852       C  0.50547157  0.71869418  0.26816246    -0.05800
C2853       C  0.49445891  0.74388708  0.28402895     0.00100
C2854       C  0.98247650  0.76854059  0.26730650    -0.08400
C2855       C  0.96861451  0.79596484  0.28256350     0.62000
H2856       H  0.97477248  0.78620794  0.22230419     0.12700
H2857       H  0.51417976  0.69975542  0.28086936     0.12700
C2858       C  0.51712365  0.68944794  0.22048775     0.62300
F2859       F  0.95523497  0.81527951  0.26192718    -0.22900
F2860       F  0.99089931  0.81195783  0.29764425    -0.20200
F2861       F  0.94640697  0.78701840  0.30272893    -0.19900
F2862       F  0.54281389  0.69582314  0.20381263    -0.20000
F2863       F  0.49472022  0.67882112  0.20142424    -0.20300
F2864       F  0.52424747  0.66671823  0.24068013    -0.23000
C2865       C  0.03121193  0.76719313  0.02091325    -0.05800
C2866       C  0.00760550  0.75055317  0.03424766     0.00100
C2867       C  0.48682838  0.73480643  0.01553655    -0.08500
C2868       C  0.48975826  0.73746063  0.98409071    -0.05800
C2869       C  0.01261795  0.75494832  0.97063022     0.00100
C2870       C  0.03396364  0.77003550  0.98930701    -0.08400
C2871       C  0.05883679  0.78982418  0.97624965     0.62000
H2872       H  0.04733499  0.77840363  0.03554314     0.12700
H2873       H  0.47390688  0.72574324  0.96952288     0.12700
C2874       C  0.46211079  0.71460233  0.02832536     0.62300
F2875       F  0.07447628  0.80526249  0.99856378    -0.22900
F2876       F  0.04632634  0.81086970  0.95685819    -0.20200
F2877       F  0.57953203  0.77223123  0.96079621    -0.19900
F2878       F  0.94012956  0.73173473  0.04205916    -0.20000
F2879       F  0.47444186  0.69485765  0.04916064    -0.20300
F2880       F  0.44816588  0.69762062  0.00603965    -0.23000
C2881       C  0.97393441  0.98646341  0.23088684    -0.05800
C2882       C  0.49848214  0.00058230  0.21651709     0.00100
C2883       C  0.51834725  0.51981753  0.23276146    -0.08500
C2884       C  0.51489320  0.52053676  0.26438763    -0.05800
C2885       C  0.49189688  0.00289260  0.28000676     0.00100
C2886       C  0.97015416  0.98736560  0.26240405    -0.08400
C2887       C  0.94242873  0.97287431  0.27670064     0.62000
H2888       H  0.95756530  0.97447538  0.21714832     0.12700
H2889       H  0.53056614  0.53342175  0.27813868     0.12700
C2890       C  0.54276826  0.53902674  0.21808003     0.62300
F2891       F  0.92230700  0.96218704  0.25516366    -0.22900
F2892       F  0.92729414  0.99383352  0.29423712    -0.20200
F2893       F  0.95113693  0.94890001  0.29459747    -0.19900
F2894       F  0.53002520  0.55685475  0.19579481    -0.20000
F2895       F  0.56483944  0.52079028  0.20554500    -0.20300
F2896       F  0.55677183  0.55789513  0.23874632    -0.23000
C2897       C  0.98014511  0.51362256  0.98045376    -0.05800
C2898       C  0.50621858  0.00317049  0.96600332     0.00100
C2899       C  0.52990498  0.98981249  0.98318523    -0.08500
C2900       C  0.52687830  0.98840567  0.01481579    -0.05800
C2901       C  0.50118201  0.49901250  0.02914925     0.00100
C2902       C  0.97698051  0.51157189  0.01197425    -0.08400
C2903       C  0.94777252  0.52297388  0.02637671     0.62000
H2904       H  0.96203994  0.52345939  0.96719209     0.12700
H2905       H  0.54490560  0.97854279  0.02816105     0.12700
C2906       C  0.55790327  0.97616624  0.96851552     0.62300
F2907       F  0.92852783  0.53616500  0.00547456    -0.22900
F2908       F  0.45429916  0.54433754  0.04822669    -0.20200
F2909       F  0.93225144  0.49918743  0.03933063    -0.19900
F2910       F  0.57519152  0.99858163  0.95535795    -0.20000
F2911       F  0.04918395  0.95517969  0.94687272    -0.20300
F2912       F  0.57609532  0.96138066  0.98926451    -0.23000
C2913       C  0.98146202  0.85607873  0.14493728    -0.05800
C2914       C  0.50369874  0.84057257  0.12859483     0.00100
C2915       C  0.52434251  0.85723912  0.11056068    -0.08500
C2916       C  0.52203245  0.88884662  0.11009685    -0.05800
C2917       C  0.49964832  0.90427709  0.12653026     0.00100
C2918       C  0.97907390  0.88769688  0.14442661    -0.08400
C2919       C  0.95507916  0.90298197  0.16371628     0.62000
H2920       H  0.96570852  0.84296844  0.15833726     0.12700
H2921       H  0.53765886  0.90188088  0.09648082     0.12700
C2922       C  0.54792829  0.84184149  0.09090358     0.62300
F2923       F  0.94016803  0.88273940  0.18228364    -0.22900
F2924       F  0.93360056  0.91645010  0.14538333    -0.20200
F2925       F  0.96850728  0.92449484  0.18196062    -0.19900
F2926       F  0.53399752  0.82062962  0.07272126    -0.20000
F2927       F  0.56942697  0.82797828  0.10890776    -0.20300
F2928       F  0.56283398  0.86201033  0.07225481    -0.23000
C2929       C  0.52327960  0.63975554  0.11007309    -0.05800
C2930       C  0.49765457  0.65447170  0.12193796     0.00100
C2931       C  0.97251787  0.63697468  0.13136628    -0.08500
C2932       C  0.97517201  0.60540412  0.13098964    -0.05800
C2933       C  0.50097977  0.59058617  0.11988285     0.00100
C2934       C  0.52504113  0.60817244  0.10784516    -0.08400
C2935       C  0.55186224  0.59413122  0.09144423     0.62000
H2936       H  0.54198124  0.65333680  0.10198345     0.12700
H2937       H  0.95663448  0.59177332  0.13932594     0.12700
C2938       C  0.94260381  0.65085088  0.14140509     0.62300
F2939       F  0.56933355  0.61557851  0.07686323    -0.22900
F2940       F  0.54152762  0.57412519  0.06975644    -0.20200
F2941       F  0.57035863  0.57923018  0.11176242    -0.19900
F2942       F  0.92953750  0.66600863  0.11740321    -0.20000
F2943       F  0.94728954  0.67055747  0.16511057    -0.20300
F2944       F  0.92204529  0.62931972  0.15102472    -0.23000
loop_ 
_geom_bond_atom_site_label_1 
_geom_bond_atom_site_label_2 
_geom_bond_distance 
_geom_bond_site_symmetry_2 
_ccdc_geom_bond_type 
O1           C11   1.276       .  A
O1         Cu745   2.006   1_545  S
O2           C12   1.279       .  A
O2           Cu9   2.017       .  S
O3          C749   1.280       .  A
O3           Cu9   2.014       .  S
O4          C750   1.278   1_455  A
O4         Cu745   2.016       .  S
O5         C2222   1.277       .  A
O5          Cu10   1.999       .  S
O6         C2221   1.273       .  A
O6         Cu746   1.991       .  S
O7         C1484   1.277       .  A
O7         Cu746   2.011       .  S
O8         C1483   1.279       .  A
O8          Cu10   2.012   1_545  S
Cu9         O737   2.008       .  S
Cu9         O740   2.018       .  S
Cu9       Cu2218   2.364   1_455  S
Cu10        O742   2.000       .  S
Cu10        O743   2.014       .  S
Cu10      Cu2217   2.366       .  S
C11        O1480   1.279   1_455  A
C11         C725   1.488       .  S
C12        O1479   1.277   1_455  A
C12         C709   1.492       .  S
C13         O739   1.280       .  A
C13        O2214   1.275   1_455  A
C13         C693   1.492       .  S
C14         O740   1.278   1_655  A
C14        O2213   1.276       .  A
C14         C674   1.484       .  S
O15        C1497   1.280       .  A
O15         Cu23   2.017       .  S
O16        C1498   1.279       .  A
O16         Cu23   2.022       .  S
O17        C1499   1.276   1_455  A
O17         Cu23   2.009       .  S
O18        C1500   1.277       .  A
O18         Cu23   2.007       .  S
O19          C28   1.277       .  A
O19         Cu24   2.009       .  S
O20          C27   1.279       .  A
O20         Cu24   2.014       .  S
O21          C26   1.278       .  A
O21         Cu24   2.005       .  S
O22          C25   1.275       .  A
O22         Cu24   2.005       .  S
Cu23      Cu1496   2.368   1_455  S
Cu24      Cu1495   2.368       .  S
C25        O1487   1.280       .  A
C25        C2194   1.488       .  S
C26        O1488   1.279       .  A
C26        C2178   1.489       .  S
C27        O1489   1.277       .  A
C27        C2114   1.481       .  S
C28        O1490   1.277       .  A
C28         C658   1.484       .  S
O29          C39   1.280       .  A
O29         Cu37   2.020       .  S
O30         C776   1.279       .  A
O30         Cu37   2.020       .  S
O31          C41   1.278       .  A
O31         Cu37   2.012   1_545  S
O32          C42   1.277       .  A
O32        Cu773   2.014       .  S
O33          C42   1.278       .  A
O33         Cu38   2.011       .  S
O34          C41   1.277       .  A
O34        Cu774   2.011   1_545  S
O35          C40   1.275       .  A
O35         Cu38   1.999       .  S
O36         C775   1.275       .  A
O36         Cu38   1.998       .  S
Cu37        O768   2.014       .  S
Cu37       Cu774   2.368       .  S
Cu38        O770   2.011       .  S
Cu38       Cu773   2.367       .  S
C39         O772   1.274       .  A
C39         C578   1.485       .  S
C40         O766   1.279       .  A
C40         C597   1.489       .  S
C41         C626   1.484       .  S
C42         C610   1.489       .  S
O43          C53   1.277       .  A
O43         Cu51   2.006       .  S
O44          C54   1.275       .  A
O44         Cu51   1.999       .  S
O45          C55   1.279       .  A
O45         Cu51   2.012       .  S
O46          C56   1.278       .  A
O46         Cu51   2.019       .  S
O47          C56   1.278       .  A
O47         Cu52   2.008       .  S
O48          C55   1.277       .  A
O48         Cu52   2.012       .  S
O49          C54   1.277       .  A
O49         Cu52   2.002       .  S
O50          C53   1.277       .  A
O50         Cu52   2.007       .  S
Cu51        Cu52   2.372       .  S
C53         C546   1.471       .  S
C54         C562   1.474       .  S
C55         C613   1.490       .  S
C56         C629   1.485       .  S
O57        C1539   1.275       .  A
O57        Cu801   1.999       .  S
O58        C1540   1.277       .  A
O58         Cu65   2.002       .  S
O59        C2277   1.277       .  A
O59         Cu65   2.012       .  S
O60        C2278   1.277       .  A
O60        Cu801   2.011       .  S
O61         C806   1.276       .  A
O61         Cu66   2.003       .  S
O62         C805   1.277       .  A
O62        Cu802   1.999       .  S
O63          C68   1.279       .  A
O63        Cu802   2.024       .  S
O64          C67   1.280       .  A
O64         Cu66   2.021       .  S
Cu65        O793   2.004   1_545  S
Cu65        O796   2.011       .  S
Cu65      Cu2274   2.369   1_455  S
Cu66        O798   1.997       .  S
Cu66        O799   2.025       .  S
Cu66      Cu2273   2.369       .  S
C67        O1529   1.275       .  A
C67         C514   1.488       .  S
C68        O1530   1.277       .  A
C68         C530   1.486       .  S
C69        O2267   1.276       .  A
C69         O798   1.277       .  A
C69        C2162   1.487       .  S
C70        O2268   1.277       .  A
C70         O797   1.276       .  A
C70        C1973   1.469       .  S
O71        C1553   1.277       .  A
O71         Cu79   2.016       .  S
O72        C1554   1.279       .  A
O72         Cu79   2.014       .  S
O73        C1555   1.280       .  A
O73         Cu79   2.022       .  S
O74        C1556   1.279       .  A
O74         Cu79   2.021       .  S
O75          C84   1.277       .  A
O75         Cu80   2.003       .  S
O76          C83   1.275       .  A
O76         Cu80   2.001       .  S
O77          C82   1.275       .  A
O77         Cu80   1.998       .  S
O78          C81   1.277       .  A
O78         Cu80   1.996       .  S
Cu79      Cu1552   2.367   1_455  S
Cu80      Cu1551   2.367       .  S
C81        O1543   1.277       .  A
C81         C661   1.484       .  S
C82        O1544   1.279       .  A
C82        C1957   1.486       .  S
C83        O1545   1.280       .  A
C83         C517   1.490       .  S
C84        O1546   1.279       .  A
C84         C533   1.486       .  S
O85          C95   1.278       .  A
O85        Cu829   2.013       .  S
O86          C96   1.276       .  A
O86         Cu93   2.007       .  S
O87         C833   1.278       .  A
O87         Cu93   2.014   1_565  S
O88         C834   1.277       .  A
O88        Cu829   2.013       .  S
O89         C834   1.278       .  A
O89         Cu94   1.998       .  S
O90         C833   1.277       .  A
O90        Cu830   2.007   1_565  S
O91          C96   1.280       .  A
O91        Cu830   2.022       .  S
O92          C95   1.277       .  A
O92         Cu94   2.011       .  S
Cu93        O821   2.008   1_545  S
Cu93        O824   2.014       .  S
Cu93       Cu830   2.369       .  S
Cu94        O826   1.999       .  S
Cu94        O827   2.014       .  S
Cu94       Cu829   2.365       .  S
C95         C450   1.485       .  S
C96         C466   1.493       .  S
C97         O823   1.277       .  A
C97         O826   1.278       .  A
C97         C594   1.489       .  S
C98         O824   1.278       .  A
C98         O825   1.277       .  A
C98         C434   1.483       .  S
O99         C109   1.278       .  A
O99        Cu107   2.012       .  S
O100        C110   1.278       .  A
O100       Cu107   2.008       .  S
O101        C111   1.280       .  A
O101       Cu107   2.011       .  S
O102        C112   1.277       .  A
O102       Cu107   2.017       .  S
O103        C112   1.279       .  A
O103       Cu108   2.012       .  S
O104        C111   1.277       .  A
O104       Cu108   2.014       .  S
O105        C110   1.275       .  A
O105       Cu108   1.996       .  S
O106        C109   1.276       .  A
O106       Cu108   1.996       .  S
Cu107      Cu108   2.370       .  S
C109        C421   1.475       .  S
C110        C565   1.474       .  S
C111        C469   1.494       .  S
C112        C453   1.487       .  S
O113        C859   1.278       .  A
O113      Cu1593   2.013   1_455  S
O114        C860   1.278       .  A
O114       Cu121   2.008       .  S
O115       C2333   1.276       .  A
O115       Cu121   2.004       .  S
O116       C2334   1.278       .  A
O116      Cu1593   2.010       .  S
O117       C1598   1.278       .  A
O117       Cu122   2.014       .  S
O118       C1597   1.278       .  A
O118      Cu1594   2.013       .  S
O119        C124   1.274       .  A
O119      Cu1594   1.992       .  S
O120        C123   1.275       .  A
O120       Cu122   1.989   1_455  S
Cu121      O1585   2.013       .  S
Cu121      O1588   2.010       .  S
Cu121     Cu2330   2.371       .  S
Cu122      O1590   2.013       .  S
Cu122      O1591   1.993       .  S
Cu122     Cu2329   2.373   1_545  S
C123        O849   1.278   1_545  A
C123        C402   1.474       .  S
C124        O850   1.278   1_545  A
C124        C386   1.479       .  S
C125       O2323   1.276   1_545  A
C125       O1590   1.278       .  A
C125       C1413   1.475       .  S
C126       O2324   1.277   1_545  A
C126       O1589   1.278       .  A
C126        C370   1.479       .  S
O127        C137   1.275       .  A
O127      Cu1607   1.992       .  S
O128        C138   1.275       .  A
O128       Cu135   1.995   1_455  S
O129       C1611   1.277       .  A
O129       Cu135   2.010       .  S
O130       C1612   1.279       .  A
O130      Cu1607   2.013       .  S
O131       C1612   1.277       .  A
O131       Cu136   2.012       .  S
O132       C1611   1.278       .  A
O132      Cu1608   2.007       .  S
O133        C138   1.278       .  A
O133      Cu1608   2.007   1_455  S
O134        C137   1.277       .  A
O134       Cu136   2.001       .  S
Cu135      O1599   1.992       .  S
Cu135      O1602   2.015       .  S
Cu135     Cu1608   2.371       .  S
Cu136      O1604   2.008       .  S
Cu136      O1605   2.007       .  S
Cu136     Cu1607   2.371       .  S
C137        C338   1.472       .  S
C138        C354   1.475       .  S
C139       O1601   1.277       .  A
C139       O1604   1.278       .  A
C139        C322   1.485       .  S
C140       O1602   1.279       .  A
C140       O1603   1.277       .  A
C140        C645   1.488       .  S
O141        C887   1.277       .  A
O141       Cu149   1.999       .  S
O142        C888   1.278       .  A
O142       Cu149   2.002       .  S
O143        C889   1.277       .  A
O143       Cu149   1.999       .  S
O144        C890   1.275       .  A
O144       Cu149   1.998       .  S
O145        C154   1.278       .  A
O145       Cu150   1.996       .  S
O146        C153   1.276       .  A
O146       Cu150   2.004       .  S
O147        C152   1.276       .  A
O147       Cu150   2.010       .  S
O148        C151   1.277       .  A
O148       Cu150   2.011       .  S
Cu149      Cu886   2.370       .  S
Cu150      Cu885   2.370   1_545  S
C151        O877   1.278   1_545  A
C151        C581   1.480       .  S
C152        O878   1.279   1_545  A
C152        C309   1.492       .  S
C153        O879   1.277   1_545  A
C153        C405   1.474       .  S
C154        O880   1.274   1_545  A
C154        C389   1.478       .  S
O155        C165   1.278       .  A
O155       Cu163   2.004       .  S
O156        C166   1.278       .  A
O156       Cu163   2.008       .  S
O157        C167   1.276       .  A
O157       Cu163   2.007       .  S
O158        C168   1.276       .  A
O158       Cu163   2.010       .  S
O159        C168   1.280       .  A
O159       Cu164   2.013       .  S
O160        C167   1.280       .  A
O160       Cu164   2.014       .  S
O161        C166   1.274       .  A
O161       Cu164   1.993       .  S
O162        C165   1.274       .  A
O162       Cu164   1.990       .  S
Cu163      Cu164   2.368       .  S
C165        C341   1.473       .  S
C166        C357   1.474       .  S
C167        C549   1.495       .  S
C168        C290   1.491       .  S
O169        C915   1.276       .  A
O169       Cu177   2.007       .  S
O170       C2388   1.277       .  A
O170       Cu177   2.015       .  S
O171        C917   1.275       .  A
O171       Cu177   1.996   1_455  S
O172        C918   1.275       .  A
O172      Cu1649   1.998       .  S
O173        C182   1.278       .  A
O173       Cu178   2.009       .  S
O174        C181   1.277       .  A
O174      Cu1650   2.006   1_455  S
O175        C180   1.278       .  A
O175       Cu178   2.012       .  S
O176       C1651   1.280       .  A
O176       Cu178   2.012       .  S
Cu177      O1644   1.998       .  S
Cu177     Cu2386   2.369       .  S
Cu178      O1646   2.006       .  S
Cu178     Cu2385   2.369   1_545  S
C179        O905   1.275   1_545  A
C179       O1648   1.280       .  A
C179        C498   1.498       .  S
C180       O2378   1.277   1_545  A
C180        C373   1.479       .  S
C181        O907   1.275   1_545  A
C181        C274   1.473       .  S
C182        O908   1.275   1_545  A
C182        C261   1.472       .  S
O183        C193   1.279       .  A
O183       Cu191   2.014       .  S
O184       C1666   1.278       .  A
O184       Cu191   2.011       .  S
O185        C195   1.275       .  A
O185       Cu191   1.996       .  S
O186        C196   1.277       .  A
O186      Cu1663   1.997       .  S
O187        C196   1.275       .  A
O187       Cu192   1.996       .  S
O188        C195   1.277       .  A
O188      Cu1664   2.000       .  S
O189        C194   1.276       .  A
O189       Cu192   2.000       .  S
O190       C1665   1.276       .  A
O190       Cu192   2.002   1_655  S
Cu191      O1658   1.997       .  S
Cu191     Cu1664   2.371       .  S
Cu192      O1660   2.001   1_455  S
Cu192     Cu1663   2.371       .  S
C193       O1662   1.276       .  A
C193        C325   1.485       .  S
C194       O1656   1.278       .  A
C194        C482   1.474       .  S
C195        C226   1.476       .  S
C196        C242   1.475       .  S
O197        C943   1.279       .  A
O197       Cu205   2.011       .  S
O198        C944   1.278       .  A
O198       Cu205   2.012       .  S
O199        C945   1.276       .  A
O199       Cu205   2.004       .  S
O200        C946   1.276       .  A
O200       Cu205   2.005       .  S
O201        C210   1.279       .  A
O201       Cu206   2.009       .  S
O202        C209   1.279       .  A
O202       Cu206   2.014       .  S
O203        C208   1.275       .  A
O203       Cu206   1.994       .  S
O204        C207   1.275       .  A
O204       Cu206   1.996       .  S
Cu205      Cu942   2.372       .  S
Cu206      Cu941   2.372   1_545  S
C207        O933   1.278   1_545  A
C207        C277   1.474       .  S
C208        O934   1.278   1_545  A
C208        C258   1.472       .  S
C209        O935   1.276   1_545  A
C209        C437   1.477       .  S
C210        O936   1.276   1_545  A
C210        C306   1.490       .  S
O211        C221   1.275       .  A
O211       Cu219   2.004       .  S
O212        C222   1.275       .  A
O212       Cu219   1.999       .  S
O213        C223   1.275       .  A
O213       Cu219   1.999       .  S
O214        C224   1.278       .  A
O214       Cu219   2.003       .  S
O215        C224   1.275       .  A
O215       Cu220   1.994       .  S
O216        C223   1.276       .  A
O216       Cu220   1.992       .  S
O217        C222   1.279       .  A
O217       Cu220   2.017       .  S
O218        C221   1.280       .  A
O218       Cu220   2.021       .  S
Cu219      Cu220   2.369       .  S
C221        C293   1.492       .  S
C222        C418   1.486       .  S
C223        C229   1.475       .  S
C224        C245   1.475       .  S
C225        C226   1.404       .  A
C225        C230   1.404       .  A
C225        H232   1.083       .  S
C226        C227   1.419       .  A
C227        C228   1.403       .  A
C227        C234   1.521       .  S
C228        C229   1.402       .  A
C228        H233   1.083       .  S
C229        C230   1.418       .  A
C230        C231   1.521       .  S
C231        F235   1.385       .  S
C231        F236   1.384       .  S
C231        F237   1.382       .  S
C234        F238   1.383       .  S
C234        F239   1.383       .  S
C234        F240   1.385       .  S
C241        C242   1.403       .  A
C241        C246   1.403       .  A
C241        H248   1.083       .  S
C242        C243   1.417       .  A
C243        C244   1.404       .  A
C243        C250   1.520       .  S
C244        C245   1.403       .  A
C244        H249   1.082       .  S
C245        C246   1.418       .  A
C246        C247   1.521       .  S
C247        F251   1.385       .  S
C247        F252   1.384       .  S
C247        F253   1.382       .  S
C250        F254   1.382       .  S
C250        F255   1.384       .  S
C250        F256   1.385       .  S
C257        C262   1.405       .  A
C257        C994   1.401       .  A
C257        H264   1.083       .  S
C258        C259   1.417       .  A
C258        C993   1.402   1_545  A
C259        C260   1.404       .  A
C259        C266   1.520       .  S
C260        C261   1.401       .  A
C260        H265   1.083       .  S
C261        C998   1.417   1_545  A
C262        C997   1.416       .  A
C262        C263   1.518       .  S
C263        F267   1.385       .  S
C263        F269   1.381       .  S
C263       F1004   1.384       .  S
C266        F270   1.382       .  S
C266        F272   1.385       .  S
C266       F1007   1.383       .  S
F268        C999   1.384       .  S
F271       C1002   1.383       .  S
C273        C274   1.402       .  A
C273        C278   1.405       .  A
C273        H280   1.083       .  S
C274       C1011   1.418   1_545  A
C275        C276   1.404       .  A
C275       C1010   1.418       .  A
C275        C282   1.520       .  S
C276       C1013   1.401       .  A
C276        H281   1.083       .  S
C277        C278   1.419       .  A
C277       C1012   1.401   1_545  A
C278        C279   1.520       .  S
C279        F283   1.385       .  S
C279        F285   1.382       .  S
C279       F1020   1.383       .  S
C282        F286   1.382       .  S
C282        F288   1.385       .  S
C282       F1023   1.383       .  S
F284       C1015   1.383       .  S
F287       C1018   1.383       .  S
C289        C290   1.404       .  A
C289        C294   1.407       .  A
C289        H296   1.083       .  S
C290        C291   1.422       .  A
C291        C292   1.409       .  A
C291        C298   1.520       .  S
C292        C293   1.405       .  A
C292        H297   1.083       .  S
C293        C294   1.423       .  A
C294        C295   1.521       .  S
C295        F299   1.385       .  S
C295        F300   1.383       .  S
C295        F301   1.383       .  S
C298        F302   1.383       .  S
C298        F303   1.382       .  S
C298        F304   1.385       .  S
C305        C306   1.405       .  A
C305        C310   1.407       .  A
C305        H312   1.083       .  S
C306       C1043   1.422   1_545  A
C307        C308   1.407       .  A
C307       C1042   1.421       .  A
C307        C314   1.522       .  S
C308       C1045   1.406       .  A
C308        H313   1.083       .  S
C309        C310   1.423       .  A
C309       C1044   1.406   1_545  A
C310        C311   1.521       .  S
C311        F315   1.385       .  S
C311        F316   1.383       .  S
C311       F1053   1.384       .  S
C314        F319   1.383       .  S
C314        F320   1.383       .  S
C314       F1054   1.385       .  S
F317       C1047   1.384       .  S
F318       C1050   1.385       .  S
C321        C326   1.407       .  A
C321       C1794   1.405       .  A
C321        H328   1.083       .  S
C322        C323   1.420       .  A
C322       C1793   1.404       .  A
C323        C324   1.407       .  A
C323        C330   1.520       .  S
C324        C325   1.404       .  A
C324        H329   1.083       .  S
C325       C1798   1.421       .  A
C326       C1797   1.421       .  A
C326        C327   1.521       .  S
C327        F331   1.385       .  S
C327        F332   1.383       .  S
C327        F333   1.384       .  S
C330        F334   1.384       .  S
C330        F335   1.383       .  S
C330        F336   1.384       .  S
C337        C338   1.401       .  A
C337        C342   1.403       .  A
C337        H344   1.082       .  S
C338        C339   1.417       .  A
C339        C340   1.403       .  A
C339        C346   1.521       .  S
C340        C341   1.402       .  A
C340        H345   1.082       .  S
C341        C342   1.418       .  A
C342        C343   1.521       .  S
C343        F347   1.385       .  S
C343        F348   1.382       .  S
C343        F349   1.384       .  S
C346        F350   1.384       .  S
C346        F351   1.382       .  S
C346        F352   1.385       .  S
C353        C354   1.403       .  A
C353        C358   1.405       .  A
C353        H360   1.083       .  S
C354        C355   1.418       .  A
C355        C356   1.404       .  A
C355        C362   1.520       .  S
C356        C357   1.402       .  A
C356        H361   1.083       .  S
C357        C358   1.418       .  A
C358        C359   1.520       .  S
C359        F363   1.385       .  S
C359        F364   1.382       .  S
C359        F365   1.384       .  S
C362        F366   1.383       .  S
C362        F367   1.382       .  S
C362        F368   1.385       .  S
C369        C374   1.410       .  A
C369       C1106   1.405       .  A
C369        H376   1.083       .  S
C370       C1105   1.403   1_545  A
C370       C1843   1.416       .  A
C371        C372   1.407       .  A
C371       C1842   1.416   1_455  A
C371        C378   1.518       .  S
C372       C1845   1.403   1_455  A
C372        H377   1.083       .  S
C373       C1844   1.403       .  A
C373       C1110   1.418   1_545  A
C374       C1109   1.419       .  A
C374        C375   1.520       .  S
C375        F379   1.385       .  S
C375        F380   1.384       .  S
C375        F381   1.382       .  S
C378        F382   1.382       .  S
C378        F383   1.383       .  S
C378        F384   1.385       .  S
C385        C390   1.407       .  A
C385       C1122   1.404       .  A
C385        H392   1.083       .  S
C386        C387   1.420       .  A
C386       C1121   1.405   1_545  A
C387        C388   1.402       .  A
C387        C394   1.522       .  S
C388        C389   1.402       .  A
C388        H393   1.083       .  S
C389       C1126   1.420   1_545  A
C390       C1125   1.420       .  A
C390        C391   1.521       .  S
C391        F395   1.385       .  S
C391        F397   1.383       .  S
C391       F1132   1.383       .  S
C394        F398   1.383       .  S
C394        F400   1.385       .  S
C394       F1135   1.384       .  S
F396       C1127   1.383       .  S
F399       C1130   1.384       .  S
C401        C402   1.404       .  A
C401        C406   1.404       .  A
C401        H408   1.083       .  S
C402       C1139   1.416   1_545  A
C403        C404   1.404       .  A
C403       C1138   1.416       .  A
C403        C410   1.519       .  S
C404       C1141   1.402       .  A
C404        H409   1.084       .  S
C405        C406   1.417       .  A
C405       C1140   1.403   1_545  A
C406        C407   1.520       .  S
C407        F411   1.385       .  S
C407        F412   1.382       .  S
C407        F413   1.384       .  S
C410        F414   1.383       .  S
C410        F415   1.382       .  S
C410        F416   1.385       .  S
C417        C418   1.407       .  A
C417        C422   1.408       .  A
C417        H424   1.083       .  S
C418        C419   1.422       .  A
C419        C420   1.405       .  A
C419        C426   1.521       .  S
C420        C421   1.400       .  A
C420        H425   1.083       .  S
C421        C422   1.415       .  A
C422        C423   1.520       .  S
C423        F427   1.384       .  S
C423        F428   1.383       .  S
C423        F429   1.383       .  S
C426        F430   1.384       .  S
C426        F431   1.383       .  S
C426        F432   1.385       .  S
C433        C438   1.404       .  A
C433       C1170   1.406       .  A
C433        H440   1.083       .  S
C434        C435   1.420       .  A
C434       C1169   1.405   1_545  A
C435        C436   1.408       .  A
C435        C442   1.519       .  S
C436        C437   1.403       .  A
C436        H441   1.083       .  S
C437       C1174   1.416   1_545  A
C438       C1173   1.415       .  A
C438        C439   1.519       .  S
C439        F443   1.385       .  S
C439        F444   1.382       .  S
C439        F445   1.383       .  S
C442        F446   1.382       .  S
C442        F447   1.384       .  S
C442        F448   1.385       .  S
C449        C450   1.405       .  A
C449        C454   1.410       .  A
C449        H456   1.083       .  S
C450        C451   1.419       .  A
C451        C452   1.406       .  A
C451        C458   1.520       .  S
C452        C453   1.404       .  A
C452        H457   1.083       .  S
C453        C454   1.421       .  A
C454        C455   1.519       .  S
C455        F459   1.385       .  S
C455        F460   1.382       .  S
C455        F461   1.382       .  S
C458        F462   1.383       .  S
C458        F463   1.382       .  S
C458        F464   1.385       .  S
C465        C466   1.406       .  A
C465        C470   1.411       .  A
C465        H472   1.083       .  S
C466        C467   1.422       .  A
C467        C468   1.407       .  A
C467        C474   1.521       .  S
C468        C469   1.406       .  A
C468        H473   1.083       .  S
C469        C470   1.423       .  A
C470        C471   1.521       .  S
C471        F475   1.385       .  S
C471        F476   1.383       .  S
C471        F477   1.383       .  S
C474        F478   1.383       .  S
C474        F479   1.384       .  S
C474        F480   1.385       .  S
C481        C486   1.406       .  A
C481       C1954   1.399       .  A
C481        H488   1.083       .  S
C482        C483   1.416       .  A
C482       C1953   1.399   1_455  A
C483        C484   1.407       .  A
C483        C490   1.520       .  S
C484        C485   1.406       .  A
C484        H489   1.083       .  S
C485       C1554   1.485       .  S
C485       C1958   1.424   1_455  A
C486       C1957   1.424       .  A
C486        C487   1.521       .  S
C487        F491   1.385       .  S
C487        F492   1.383       .  S
C487        F493   1.384       .  S
C490        F494   1.382       .  S
C490        F495   1.383       .  S
C490        F496   1.385       .  S
C497        C502   1.406       .  A
C497       C1970   1.413       .  A
C497        H504   1.082       .  S
C498       C1969   1.413   1_655  A
C498       C1235   1.430   1_545  A
C499        C500   1.408       .  A
C499       C1234   1.430       .  A
C499        C506   1.522       .  S
C500       C1237   1.397   1_655  A
C500        H505   1.083       .  S
C501       C1542   1.469       .  S
C501       C1236   1.396   1_445  A
C501       C1974   1.408       .  A
C502       C1973   1.408       .  A
C502        C503   1.518       .  S
C503        F507   1.384       .  S
C503        F508   1.383       .  S
C503        F509   1.383       .  S
C506        F510   1.385       .  S
C506        F511   1.383   1_655  S
C506        F512   1.382       .  S
C513        C514   1.404       .  A
C513        C518   1.409       .  A
C513        H520   1.083       .  S
C514       C1987   1.421       .  A
C515        C516   1.408       .  A
C515       C1986   1.421       .  A
C515        C522   1.521       .  S
C516       C1989   1.404       .  A
C516        H521   1.083       .  S
C517        C518   1.423       .  A
C517       C1988   1.404       .  A
C518        C519   1.521       .  S
C519        F523   1.385       .  S
C519        F524   1.384       .  S
C519        F525   1.383       .  S
C522        F526   1.383       .  S
C522        F527   1.384       .  S
C522        F528   1.384       .  S
C529        C534   1.408       .  A
C529       C2002   1.406       .  A
C529        H536   1.083       .  S
C530        C531   1.418       .  A
C530       C2001   1.406       .  A
C531        C532   1.408       .  A
C531        C538   1.519       .  S
C532        C533   1.406       .  A
C532        H537   1.083       .  S
C533       C2006   1.419       .  A
C534       C2005   1.419       .  A
C534        C535   1.520       .  S
C535        F539   1.385       .  S
C535        F540   1.383       .  S
C535        F541   1.384       .  S
C538        F542   1.384       .  S
C538        F543   1.382       .  S
C538        F544   1.385       .  S
C545        C546   1.398       .  A
C545        C550   1.409       .  A
C545        H552   1.083       .  S
C546        C547   1.411       .  A
C547        C548   1.406       .  A
C547        C554   1.520       .  S
C548        C549   1.410       .  A
C548        H553   1.082       .  S
C549        C550   1.428       .  A
C550        C551   1.521       .  S
C551        F555   1.383       .  S
C551        F556   1.383       .  S
C551        F557   1.385       .  S
C554        F558   1.384       .  S
C554        F559   1.382       .  S
C554        F560   1.384       .  S
C561        C562   1.402       .  A
C561        C566   1.404   1_554  A
C561        H568   1.084       .  S
C562        C563   1.418       .  A
C563        C564   1.404   1_554  A
C563        C570   1.520       .  S
C564        C565   1.401       .  A
C564        H569   1.083       .  S
C565        C566   1.418       .  A
C566        C567   1.520       .  S
C567        F571   1.385       .  S
C567        F572   1.383       .  S
C567        F573   1.382       .  S
C570        F574   1.382       .  S
C570        F575   1.383       .  S
C570        F576   1.385       .  S
C577        C578   1.405   1_545  A
C577        C582   1.407       .  A
C577        H584   1.083       .  S
C578       C1315   1.422       .  A
C579        C580   1.405       .  A
C579       C1314   1.419       .  A
C579        C586   1.520       .  S
C580       C1317   1.403       .  A
C580        H585   1.083       .  S
C581        C582   1.418       .  A
C581       C1316   1.402   1_545  A
C582        C583   1.520       .  S
C583        F587   1.385       .  S
C583        F588   1.382       .  S
C583        F589   1.382       .  S
C586        F590   1.384       .  S
C586        F591   1.382       .  S
C586        F592   1.385       .  S
C593        C594   1.405       .  A
C593       C1334   1.405   1_556  A
C593       H1336   1.083       .  S
C594        C595   1.421       .  A
C595       C1332   1.408   1_556  A
C595        C602   1.521       .  S
C596       C1331   1.408   1_554  A
C596       C1333   1.402       .  A
C596       H1337   1.083       .  S
C597       C1332   1.406       .  A
C597       C1334   1.422       .  A
C598       C1329   1.406   1_554  A
C598       C1333   1.419   1_545  A
C598        C599   1.521       .  S
C599        F603   1.385       .  S
C599        F604   1.383       .  S
C599       F1341   1.382       .  S
H600       C1329   1.084       .  S
H601       C1332   1.083       .  S
C602        F607   1.383       .  S
C602        F608   1.385       .  S
C602       F1342   1.383       .  S
F605       C1335   1.383       .  S
F606       C1338   1.382       .  S
C609        C610   1.405       .  A
C609        C614   1.410       .  A
C609        H616   1.083       .  S
C610        C611   1.420       .  A
C611        C612   1.407       .  A
C611        C618   1.520       .  S
C612        C613   1.405       .  A
C612        H617   1.083       .  S
C613        C614   1.422       .  A
C614        C615   1.521       .  S
C615        F619   1.385       .  S
C615        F620   1.383       .  S
C615        F621   1.383       .  S
C618        F622   1.384       .  S
C618        F623   1.382       .  S
C618        F624   1.385       .  S
C625        C626   1.405       .  A
C625        C630   1.409       .  A
C625        H632   1.083       .  S
C626        C627   1.419       .  A
C627        C628   1.407       .  A
C627        C634   1.520       .  S
C628        C629   1.404       .  A
C628        H633   1.083       .  S
C629        C630   1.420       .  A
C630        C631   1.520       .  S
C631        F635   1.385       .  S
C631        F636   1.382       .  S
C631        F637   1.384       .  S
C634        F638   1.384       .  S
C634        F639   1.383       .  S
C634        F640   1.385       .  S
C641        C646   1.407       .  A
C641       C2114   1.402       .  A
C641        H648   1.083       .  S
C642       C1499   1.480       .  S
C642        C643   1.418   1_655  A
C642       C2113   1.401       .  A
C643        C644   1.408       .  A
C643        C650   1.520       .  S
C644        C645   1.405   1_455  A
C644        H649   1.083       .  S
C645       C2118   1.422       .  A
C646       C2117   1.421       .  A
C646        C647   1.518       .  S
C647        F651   1.385       .  S
C647        F652   1.382       .  S
C647        F653   1.382       .  S
C650        F654   1.381       .  S
C650        F655   1.381       .  S
C650        F656   1.385       .  S
C657        C658   1.407       .  A
C657        C662   1.410   1_554  A
C657        H664   1.082       .  S
C658       C2131   1.418       .  A
C659        C660   1.403   1_554  A
C659       C2130   1.418   1_655  A
C659        C666   1.520       .  S
C660       C2133   1.404   1_655  A
C660        H665   1.083       .  S
C661        C662   1.419       .  A
C661       C2132   1.404       .  A
C662        C663   1.520       .  S
C663        F667   1.385       .  S
C663        F668   1.384       .  S
C663       F2141   1.383       .  S
C666        F671   1.384       .  S
C666        F672   1.385       .  S
C666       F2142   1.382       .  S
F669       C2135   1.382       .  S
F670       C2138   1.382       .  S
C673        C678   1.405       .  A
C673       C2146   1.406       .  A
C673        H680   1.083       .  S
C674       C2145   1.406       .  A
C674       C1411   1.421   1_655  A
C675        C676   1.408       .  A
C675       C1410   1.421   1_455  A
C675        C682   1.520       .  S
C676       C1413   1.402   1_455  A
C676        H681   1.083       .  S
C677        C861   1.477       .  S
C677       C1412   1.402   1_655  A
C677       C2150   1.414       .  A
C678       C2149   1.414       .  A
C678        C679   1.519       .  S
C679        F683   1.385       .  S
C679        F684   1.384       .  S
C679        F685   1.382       .  S
C682        F686   1.384       .  S
C682        F687   1.383       .  S
C682        F688   1.385       .  S
C689        C694   1.407   1_556  A
C689       C2898   1.405       .  A
C689        H696   1.082       .  S
C690       C1541   1.487       .  S
C690        C691   1.421       .  A
C690       C2897   1.404   1_455  A
C691        C692   1.407   1_556  A
C691        C698   1.521       .  S
C692       C1429   1.405       .  A
C692        H697   1.082       .  S
C693       C1428   1.406       .  A
C693       C2166   1.424   1_465  A
C694       C2165   1.424   1_545  A
C694        C695   1.523       .  S
C695        F699   1.385       .  S
C695        F701   1.383       .  S
C695       F2172   1.384       .  S
C698        F702   1.383       .  S
C698        F704   1.384       .  S
C698       F2175   1.384       .  S
F700       C2167   1.384       .  S
F703       C2170   1.384       .  S
C705        C710   1.408       .  A
C705       C2178   1.404       .  A
C705        H712   1.083       .  S
C706       C1498   1.489       .  S
C706        C707   1.420       .  A
C706       C2177   1.404   1_455  A
C707        C708   1.409       .  A
C707        C714   1.519       .  S
C708        C709   1.406       .  A
C708        H713   1.083       .  S
C709       C2182   1.422   1_455  A
C710       C2181   1.422       .  A
C710        C711   1.520       .  S
C711        F715   1.385       .  S
C711        F716   1.383       .  S
C711        F717   1.383       .  S
C714        F718   1.383       .  S
C714        F719   1.382       .  S
C714        F720   1.385       .  S
C721        C722   1.405   1_455  A
C721        C726   1.408       .  A
C721        H728   1.083       .  S
C722       C1497   1.488   1_655  S
C722       C2195   1.422       .  A
C723        C724   1.407       .  A
C723       C2194   1.422       .  A
C723        C730   1.522       .  S
C724       C2197   1.404       .  A
C724        H729   1.083       .  S
C725        C726   1.421       .  A
C725       C2196   1.404   1_455  A
C726        C727   1.521       .  S
C727        F731   1.385       .  S
C727        F732   1.384       .  S
C727        F733   1.382       .  S
C730        F734   1.383       .  S
C730        F735   1.382       .  S
C730        F736   1.385       .  S
O737        C747   1.276       .  A
O738        C748   1.278   1_455  A
O738       Cu745   2.012       .  S
O739       Cu745   2.015       .  S
O741       C1486   1.276       .  A
O741       Cu746   1.997       .  S
O742       C1485   1.275       .  A
O743       C2220   1.277       .  A
O744       C2219   1.279       .  A
O744       Cu746   2.010       .  S
Cu745     Cu1482   2.365   1_455  S
Cu746     Cu1481   2.364       .  S
C747       O2216   1.279   1_455  A
C747       C1461   1.491       .  S
C748       O2215   1.277       .  A
C748       C1445   1.488       .  S
C749       O1478   1.273   1_455  A
C749       C1429   1.489       .  S
C750       O1477   1.277       .  A
C750       C1410   1.486   1_565  S
O751       C2233   1.280   1_455  A
O751       Cu759   2.016       .  S
O752       C2234   1.279       .  A
O752       Cu759   2.020       .  S
O753       C2235   1.277   1_455  A
O753       Cu759   2.010       .  S
O754       C2236   1.277       .  A
O754       Cu759   2.008       .  S
O755        C764   1.277       .  A
O755       Cu760   2.007       .  S
O756        C763   1.278       .  A
O756       Cu760   2.015       .  S
O757        C762   1.277       .  A
O757       Cu760   2.006       .  S
O758        C761   1.276       .  A
O758       Cu760   2.006       .  S
Cu759     Cu2232   2.369   1_455  S
Cu760     Cu2231   2.369       .  S
C761       O2223   1.280       .  A
C761       C2930   1.493       .  S
C762       O2224   1.279       .  A
C762       C2914   1.486       .  S
C763       O2225   1.277       .  A
C763       C2850   1.477       .  S
C764       O2226   1.277       .  A
C764       C1394   1.484       .  S
O765        C775   1.279       .  A
O765       Cu773   2.012       .  S
O766       Cu773   2.010       .  S
O767        C777   1.278       .  A
O767       Cu773   2.010       .  S
O768        C778   1.277       .  A
O769        C778   1.280       .  A
O769       Cu774   2.015       .  S
O770        C777   1.277       .  A
O771        C776   1.275       .  A
O771       Cu774   1.998       .  S
O772       Cu774   1.995       .  S
C775       C1314   1.481       .  S
C776       C1333   1.479       .  S
C777       C1362   1.484       .  S
C778       C1346   1.493       .  S
O779        C789   1.276       .  A
O779       Cu787   2.001       .  S
O780        C790   1.275       .  A
O780       Cu787   1.998       .  S
O781        C791   1.280       .  A
O781       Cu787   2.017       .  S
O782        C792   1.278       .  A
O782       Cu787   2.017       .  S
O783        C792   1.277       .  A
O783       Cu788   2.005       .  S
O784        C791   1.276       .  A
O784       Cu788   2.009       .  S
O785        C790   1.279       .  A
O785       Cu788   2.011       .  S
O786        C789   1.278       .  A
O786       Cu788   2.011       .  S
Cu787      Cu788   2.370       .  S
C789       C1282   1.473       .  S
C790       C1298   1.478       .  S
C791       C1349   1.493       .  S
C792       C1365   1.483       .  S
O793       C2275   1.275       .  A
O794       C2276   1.277       .  A
O794       Cu801   1.998       .  S
O795       C1541   1.276       .  A
O795       Cu801   2.007       .  S
O796       C1542   1.277       .  A
O797       Cu802   2.002       .  S
O799        C804   1.279       .  A
O800        C803   1.281       .  A
O800       Cu802   2.023   1_565  S
Cu801     Cu1538   2.369   1_455  S
Cu802     Cu1537   2.369       .  S
C803       O2265   1.275       .  A
C803       C1250   1.491       .  S
C804       O2266   1.277       .  A
C804       C1266   1.487       .  S
C805       O1531   1.277       .  A
C805       C2898   1.490       .  S
C806       O1532   1.277       .  A
C806       C2709   1.469       .  S
O807       C2289   1.277       .  A
O807       Cu815   2.017       .  S
O808       C2290   1.279       .  A
O808       Cu815   2.016       .  S
O809       C2291   1.280       .  A
O809       Cu815   2.023       .  S
O810       C2292   1.278       .  A
O810       Cu815   2.019       .  S
O811        C820   1.278       .  A
O811       Cu816   2.007       .  S
O812        C819   1.276       .  A
O812       Cu816   2.007       .  S
O813        C818   1.275       .  A
O813       Cu816   1.999       .  S
O814        C817   1.277       .  A
O814       Cu816   1.996       .  S
Cu815     Cu2288   2.366   1_455  S
Cu816     Cu2287   2.366       .  S
C817       O2279   1.277       .  A
C817       C1397   1.485       .  S
C818       O2280   1.280       .  A
C818       C2693   1.488       .  S
C819       O2281   1.280       .  A
C819       C1253   1.493       .  S
C820       O2282   1.278       .  A
C820       C1269   1.488       .  S
O821        C831   1.277       .  A
O822        C832   1.276       .  A
O822       Cu829   2.008       .  S
O823       Cu829   2.011       .  S
O825       Cu830   1.999       .  S
O827        C832   1.279       .  A
O828        C831   1.279       .  A
O828       Cu830   2.022   1_565  S
C831       C1186   1.484       .  S
C832       C1202   1.492       .  S
C833       C1330   1.480       .  S
C834       C1170   1.485       .  S
O835        C845   1.277       .  A
O835       Cu843   2.007       .  S
O836        C846   1.278       .  A
O836       Cu843   2.009       .  S
O837        C847   1.279       .  A
O837       Cu843   2.005       .  S
O838        C848   1.277       .  A
O838       Cu843   2.011       .  S
O839        C848   1.279       .  A
O839       Cu844   2.019       .  S
O840        C847   1.277       .  A
O840       Cu844   2.014       .  S
O841        C846   1.276       .  A
O841       Cu844   2.003       .  S
O842        C845   1.277       .  A
O842       Cu844   2.001       .  S
Cu843      Cu844   2.370       .  S
C845       C1157   1.477       .  S
C846       C1301   1.477       .  S
C847       C1205   1.492       .  S
C848       C1189   1.486       .  S
O849      Cu2329   2.008   1_455  S
O850       Cu857   2.004       .  S
O851       C1597   1.276   1_565  A
O851       Cu857   2.004       .  S
O852       C1598   1.277   1_565  A
O852      Cu2329   2.009       .  S
O853       C2334   1.278       .  A
O853       Cu858   2.013       .  S
O854       C2333   1.278       .  A
O854      Cu2330   2.015       .  S
O855        C860   1.274       .  A
O855      Cu2330   1.992       .  S
O856        C859   1.275       .  A
O856       Cu858   1.993   1_455  S
Cu857      O2321   2.008       .  S
Cu857      O2324   2.009       .  S
Cu857     Cu1594   2.373   1_565  S
Cu858      O2326   2.015       .  S
Cu858      O2327   1.993       .  S
Cu858     Cu1593   2.371       .  S
C859       C1138   1.475       .  S
C860       C1122   1.481       .  S
C861       O1587   1.276       .  A
C861       O2326   1.278       .  A
C862       O1588   1.278       .  A
C862       O2325   1.278       .  A
C862       C1106   1.484       .  S
O863        C873   1.275       .  A
O863      Cu2343   1.999       .  S
O864        C874   1.276       .  A
O864       Cu871   2.003   1_455  S
O865       C2347   1.277       .  A
O865       Cu871   2.016       .  S
O866       C2348   1.280       .  A
O866      Cu2343   2.012       .  S
O867       C2348   1.276       .  A
O867       Cu872   2.007       .  S
O868       C2347   1.278       .  A
O868      Cu2344   2.002       .  S
O869        C874   1.276       .  A
O869      Cu2344   1.996   1_455  S
O870        C873   1.277       .  A
O870       Cu872   1.992       .  S
Cu871      O2335   1.999       .  S
Cu871      O2338   2.013       .  S
Cu871     Cu2344   2.368       .  S
Cu872      O2340   2.002       .  S
Cu872      O2341   1.996       .  S
Cu872     Cu2343   2.368       .  S
C873       C1074   1.477       .  S
C874       C1090   1.474       .  S
C875       O2337   1.277       .  A
C875       O2340   1.278       .  A
C875       C1058   1.488       .  S
C876       O2338   1.280       .  A
C876       O2339   1.276       .  A
C876       C1381   1.493       .  S
O877       Cu885   2.007       .  S
O878       Cu885   2.007       .  S
O879       Cu885   1.995       .  S
O880       Cu885   1.994       .  S
O881        C890   1.278       .  A
O881       Cu886   1.998       .  S
O882        C889   1.276       .  A
O882       Cu886   2.005       .  S
O883        C888   1.277       .  A
O883       Cu886   2.011       .  S
O884        C887   1.278       .  A
O884       Cu886   2.013       .  S
C887       C1317   1.479       .  S
C888       C1045   1.490       .  S
C889       C1141   1.473       .  S
C890       C1125   1.481       .  S
O891        C901   1.277       .  A
O891       Cu899   1.993       .  S
O892        C902   1.276       .  A
O892       Cu899   1.996       .  S
O893        C903   1.275       .  A
O893       Cu899   2.002       .  S
O894        C904   1.276       .  A
O894       Cu899   2.006       .  S
O895        C904   1.279       .  A
O895       Cu900   2.015       .  S
O896        C903   1.280       .  A
O896       Cu900   2.015       .  S
O897        C902   1.276       .  A
O897       Cu900   2.002       .  S
O898        C901   1.276       .  A
O898       Cu900   2.001       .  S
Cu899      Cu900   2.369       .  S
C901       C1077   1.479       .  S
C902       C1093   1.472       .  S
C903       C1285   1.490       .  S
C904       C1026   1.487       .  S
O905       Cu913   2.003       .  S
O906       C1652   1.277   1_565  A
O906       Cu913   2.012       .  S
O907       Cu913   1.995   1_455  S
O908      Cu2385   1.997       .  S
O909        C918   1.277       .  A
O909       Cu914   2.008       .  S
O910        C917   1.277       .  A
O910      Cu2386   2.007   1_455  S
O911        C916   1.278       .  A
O911       Cu914   2.009       .  S
O912       C2387   1.279       .  A
O912       Cu914   2.011       .  S
Cu913      O2380   1.997       .  S
Cu913     Cu1650   2.369   1_565  S
Cu914      O2382   2.007       .  S
Cu914     Cu1649   2.369       .  S
C915       O2384   1.279       .  A
C915       C1234   1.499       .  S
C916       O1642   1.277       .  A
C916       C1109   1.484       .  S
C917       C1010   1.474       .  S
C918        C997   1.471       .  S
O919        C929   1.278       .  A
O919       Cu927   2.010       .  S
O920       C2402   1.278       .  A
O920       Cu927   2.010       .  S
O921        C931   1.277       .  A
O921       Cu927   2.005       .  S
O922        C932   1.278       .  A
O922      Cu2399   2.005       .  S
O923        C932   1.273       .  A
O923       Cu928   1.981       .  S
O924        C931   1.276       .  A
O924      Cu2400   1.991       .  S
O925        C930   1.277       .  A
O925       Cu928   2.006       .  S
O926       C2401   1.277   1_455  A
O926       Cu928   2.005       .  S
Cu927      O2394   2.005       .  S
Cu927     Cu2400   2.371       .  S
Cu928      O2396   1.991   1_455  S
Cu928     Cu2399   2.371       .  S
C929       O2398   1.277       .  A
C929       C1061   1.485       .  S
C930       O2392   1.278       .  A
C930       C1218   1.475       .  S
C931        C962   1.479       .  S
C932        C978   1.473       .  S
O933       Cu941   2.007       .  S
O934       Cu941   2.009       .  S
O935       Cu941   2.001       .  S
O936       Cu941   2.005       .  S
O937        C946   1.279       .  A
O937       Cu942   2.006       .  S
O938        C945   1.278       .  A
O938       Cu942   2.012       .  S
O939        C944   1.274       .  A
O939       Cu942   1.990       .  S
O940        C943   1.274       .  A
O940       Cu942   1.995       .  S
C943       C1013   1.475       .  S
C944        C994   1.470       .  S
C945       C1173   1.477       .  S
C946       C1042   1.488       .  S
O947        C957   1.275       .  A
O947       Cu955   2.002       .  S
O948        C958   1.275       .  A
O948       Cu955   2.000       .  S
O949        C959   1.276       .  A
O949       Cu955   2.007       .  S
O950        C960   1.278       .  A
O950       Cu955   2.001       .  S
O951        C960   1.273       .  A
O951       Cu956   1.989       .  S
O952        C959   1.276       .  A
O952       Cu956   1.990       .  S
O953        C958   1.279       .  A
O953       Cu956   2.014       .  S
O954        C957   1.280       .  A
O954       Cu956   2.019       .  S
Cu955      Cu956   2.369       .  S
C957       C1029   1.488       .  S
C958       C1154   1.482       .  S
C959        C965   1.481       .  S
C960        C981   1.472       .  S
C961        C962   1.405       .  A
C961        C966   1.405       .  A
C961        H968   1.083       .  S
C962        C963   1.418       .  A
C963        C964   1.403       .  A
C963        C970   1.521       .  S
C964        C965   1.405       .  A
C964        H969   1.083       .  S
C965        C966   1.419       .  A
C966        C967   1.520       .  S
C967        F971   1.385       .  S
C967        F972   1.384       .  S
C967        F973   1.383       .  S
C970        F974   1.382       .  S
C970        F975   1.384       .  S
C970        F976   1.385       .  S
C977        C978   1.403       .  A
C977        C982   1.404       .  A
C977        H984   1.083       .  S
C978        C979   1.418       .  A
C979        C980   1.400       .  A
C979        C986   1.521       .  S
C980        C981   1.400       .  A
C980        H985   1.082       .  S
C981        C982   1.418       .  A
C982        C983   1.521       .  S
C983        F987   1.385       .  S
C983        F988   1.383       .  S
C983        F989   1.382       .  S
C986        F990   1.383       .  S
C986        F991   1.384       .  S
C986        F992   1.385       .  S
C993        C998   1.406       .  A
C993       H1000   1.083       .  S
C994        C995   1.417       .  A
C995        C996   1.404       .  A
C995       C1002   1.520       .  S
C996        C997   1.400       .  A
C996       H1001   1.083       .  S
C998        C999   1.519       .  S
C999       F1003   1.385       .  S
C999       F1005   1.382       .  S
C1002      F1006   1.382       .  S
C1002      F1008   1.384       .  S
C1009      C1010   1.402       .  A
C1009      C1014   1.406       .  A
C1009      H1016   1.083       .  S
C1011      C1012   1.404       .  A
C1011      C1018   1.520       .  S
C1012      H1017   1.083       .  S
C1013      C1014   1.419       .  A
C1014      C1015   1.520       .  S
C1015      F1019   1.385       .  S
C1015      F1021   1.382       .  S
C1018      F1022   1.382       .  S
C1018      F1024   1.385       .  S
C1025      C1026   1.404       .  A
C1025      C1030   1.408       .  A
C1025      H1032   1.083       .  S
C1026      C1027   1.421       .  A
C1027      C1028   1.407       .  A
C1027      C1034   1.520       .  S
C1028      C1029   1.404       .  A
C1028      H1033   1.083       .  S
C1029      C1030   1.422       .  A
C1030      C1031   1.520       .  S
C1031      F1035   1.385       .  S
C1031      F1036   1.383       .  S
C1031      F1037   1.382       .  S
C1034      F1038   1.383       .  S
C1034      F1039   1.382       .  S
C1034      F1040   1.385       .  S
C1041      C1042   1.405       .  A
C1041      C1046   1.406       .  A
C1041      H1048   1.083       .  S
C1043      C1044   1.407       .  A
C1043      C1050   1.522       .  S
C1044      H1049   1.082       .  S
C1045      C1046   1.422       .  A
C1046      C1047   1.521       .  S
C1047      F1051   1.385       .  S
C1047      F1052   1.383       .  S
C1050      F1055   1.383       .  S
C1050      F1056   1.383       .  S
C1057      C2530   1.405       .  A
C1057      C1062   1.405       .  A
C1057      H1064   1.083       .  S
C1058      C2529   1.405       .  A
C1058      C1059   1.421       .  A
C1059      C1060   1.409       .  A
C1059      C1066   1.520       .  S
C1060      C1061   1.406       .  A
C1060      H1065   1.083       .  S
C1061      C2534   1.419       .  A
C1062      C2533   1.419       .  A
C1062      C1063   1.521       .  S
C1063      F1067   1.385       .  S
C1063      F1068   1.383       .  S
C1063      F1069   1.384       .  S
C1066      F1070   1.383       .  S
C1066      F1071   1.383       .  S
C1066      F1072   1.385       .  S
C1073      C1074   1.404       .  A
C1073      C1078   1.403       .  A
C1073      H1080   1.083       .  S
C1074      C1075   1.418       .  A
C1075      C1076   1.404       .  A
C1075      C1082   1.521       .  S
C1076      C1077   1.405       .  A
C1076      H1081   1.082       .  S
C1077      C1078   1.419       .  A
C1078      C1079   1.521       .  S
C1079      F1083   1.385       .  S
C1079      F1084   1.383       .  S
C1079      F1085   1.384       .  S
C1082      F1086   1.384       .  S
C1082      F1087   1.383       .  S
C1082      F1088   1.385       .  S
C1089      C1090   1.404       .  A
C1089      C1094   1.405       .  A
C1089      H1096   1.083       .  S
C1090      C1091   1.417       .  A
C1091      C1092   1.403       .  A
C1091      C1098   1.520       .  S
C1092      C1093   1.402       .  A
C1092      H1097   1.082       .  S
C1093      C1094   1.416       .  A
C1094      C1095   1.519       .  S
C1095      F1099   1.385       .  S
C1095      F1100   1.382       .  S
C1095      F1101   1.383       .  S
C1098      F1102   1.384       .  S
C1098      F1103   1.382       .  S
C1098      F1104   1.385       .  S
C1105      C1110   1.408       .  A
C1105      H1112   1.083       .  S
C1106      C2579   1.418       .  A
C1107      C2578   1.418   1_455  A
C1107      C1108   1.406       .  A
C1107      C1114   1.518       .  S
C1108      C2581   1.404   1_455  A
C1108      H1113   1.083       .  S
C1109      C2580   1.404       .  A
C1110      C1111   1.519       .  S
C1111      F1115   1.385       .  S
C1111      F1116   1.383       .  S
C1111      F1117   1.382       .  S
C1114      F1118   1.382       .  S
C1114      F1119   1.382       .  S
C1114      F1120   1.384       .  S
C1121      C1126   1.406       .  A
C1121      H1128   1.083       .  S
C1122      C1123   1.421       .  A
C1123      C1124   1.402       .  A
C1123      C1130   1.522       .  S
C1124      C1125   1.403       .  A
C1124      H1129   1.083       .  S
C1126      C1127   1.522       .  S
C1127      F1131   1.385       .  S
C1127      F1133   1.383       .  S
C1130      F1134   1.383       .  S
C1130      F1136   1.385       .  S
C1137      C1138   1.403       .  A
C1137      C1142   1.405       .  A
C1137      H1144   1.082       .  S
C1139      C1140   1.403       .  A
C1139      C1146   1.520       .  S
C1140      H1145   1.084       .  S
C1141      C1142   1.416       .  A
C1142      C1143   1.520       .  S
C1143      F1147   1.385       .  S
C1143      F1148   1.382       .  S
C1143      F1149   1.383       .  S
C1146      F1150   1.383       .  S
C1146      F1151   1.382       .  S
C1146      F1152   1.385       .  S
C1153      C1154   1.404       .  A
C1153      C1158   1.406       .  A
C1153      H1160   1.083       .  S
C1154      C1155   1.422       .  A
C1155      C1156   1.406       .  A
C1155      C1162   1.521       .  S
C1156      C1157   1.402       .  A
C1156      H1161   1.083       .  S
C1157      C1158   1.417       .  A
C1158      C1159   1.520       .  S
C1159      F1163   1.384       .  S
C1159      F1164   1.384       .  S
C1159      F1165   1.382       .  S
C1162      F1166   1.383       .  S
C1162      F1167   1.382       .  S
C1162      F1168   1.385       .  S
C1169      C1174   1.405       .  A
C1169      H1176   1.083       .  S
C1170      C1171   1.421       .  A
C1171      C1172   1.408       .  A
C1171      C1178   1.520       .  S
C1172      C1173   1.403       .  A
C1172      H1177   1.083       .  S
C1174      C1175   1.519       .  S
C1175      F1179   1.385       .  S
C1175      F1180   1.382       .  S
C1175      F1181   1.383       .  S
C1178      F1182   1.383       .  S
C1178      F1183   1.383       .  S
C1178      F1184   1.385       .  S
C1185      C1186   1.404       .  A
C1185      C1190   1.408       .  A
C1185      H1192   1.082       .  S
C1186      C1187   1.417       .  A
C1187      C1188   1.409       .  A
C1187      C1194   1.519       .  S
C1188      C1189   1.405       .  A
C1188      H1193   1.084       .  S
C1189      C1190   1.419       .  A
C1190      C1191   1.519       .  S
C1191      F1195   1.385       .  S
C1191      F1196   1.383       .  S
C1191      F1197   1.383       .  S
C1194      F1198   1.384       .  S
C1194      F1199   1.381       .  S
C1194      F1200   1.385       .  S
C1201      C1202   1.407       .  A
C1201      C1206   1.410       .  A
C1201      H1208   1.083       .  S
C1202      C1203   1.422       .  A
C1203      C1204   1.407       .  A
C1203      C1210   1.522       .  S
C1204      C1205   1.406       .  A
C1204      H1209   1.083       .  S
C1205      C1206   1.422       .  A
C1206      C1207   1.521       .  S
C1207      F1211   1.385       .  S
C1207      F1212   1.384       .  S
C1207      F1213   1.383       .  S
C1210      F1214   1.383       .  S
C1210      F1215   1.384       .  S
C1210      F1216   1.385       .  S
C1217      C2690   1.399       .  A
C1217      C1222   1.407       .  A
C1217      H1224   1.083       .  S
C1218      C2689   1.399   1_455  A
C1218      C1219   1.415       .  A
C1219      C1220   1.407       .  A
C1219      C1226   1.520       .  S
C1220      C1221   1.406       .  A
C1220      H1225   1.083       .  S
C1221      C2290   1.488       .  S
C1221      C2694   1.425   1_455  A
C1222      C2693   1.425       .  A
C1222      C1223   1.521       .  S
C1223      F1227   1.385       .  S
C1223      F1228   1.383       .  S
C1223      F1229   1.384       .  S
C1226      F1230   1.382       .  S
C1226      F1231   1.383       .  S
C1226      F1232   1.385       .  S
C1233      C2706   1.413       .  A
C1233      C1238   1.406       .  A
C1233      H1240   1.082       .  S
C1234      C2705   1.413   1_655  A
C1235      C1236   1.407       .  A
C1235      C1242   1.522       .  S
C1236      H1241   1.083       .  S
C1237      C2278   1.469       .  S
C1237      C2710   1.408       .  A
C1238      C2709   1.408       .  A
C1238      C1239   1.518       .  S
C1239      F1243   1.384       .  S
C1239      F1244   1.383       .  S
C1239      F1245   1.383       .  S
C1242      F1246   1.385       .  S
C1242      F1247   1.383   1_655  S
C1242      F1248   1.382       .  S
C1249      C1250   1.404       .  A
C1249      C1254   1.409       .  A
C1249      H1256   1.083       .  S
C1250      C2723   1.422       .  A
C1251      C2722   1.422       .  A
C1251      C1252   1.409       .  A
C1251      C1258   1.521       .  S
C1252      C2725   1.405       .  A
C1252      H1257   1.083       .  S
C1253      C2724   1.406       .  A
C1253      C1254   1.423       .  A
C1254      C1255   1.521       .  S
C1255      F1259   1.385       .  S
C1255      F1260   1.384       .  S
C1255      F1261   1.383       .  S
C1258      F1262   1.383       .  S
C1258      F1263   1.384       .  S
C1258      F1264   1.385       .  S
C1265      C2738   1.405       .  A
C1265      C1270   1.408       .  A
C1265      H1272   1.083       .  S
C1266      C2737   1.405       .  A
C1266      C1267   1.419       .  A
C1267      C1268   1.409       .  A
C1267      C1274   1.520       .  S
C1268      C1269   1.406       .  A
C1268      H1273   1.083       .  S
C1269      C2742   1.420       .  A
C1270      C2741   1.420       .  A
C1270      C1271   1.520       .  S
C1271      F1275   1.385       .  S
C1271      F1276   1.383       .  S
C1271      F1277   1.383       .  S
C1274      F1278   1.384       .  S
C1274      F1279   1.382       .  S
C1274      F1280   1.385       .  S
C1281      C1282   1.399       .  A
C1281      C1286   1.408       .  A
C1281      H1288   1.084       .  S
C1282      C1283   1.414       .  A
C1283      C1284   1.405       .  A
C1283      C1290   1.520       .  S
C1284      C1285   1.407       .  A
C1284      H1289   1.083       .  S
C1285      C1286   1.426       .  A
C1286      C1287   1.521       .  S
C1287      F1291   1.383       .  S
C1287      F1292   1.383       .  S
C1287      F1293   1.385       .  S
C1290      F1294   1.383       .  S
C1290      F1295   1.382       .  S
C1290      F1296   1.384       .  S
C1297      C1298   1.403       .  A
C1297      C1302   1.405   1_554  A
C1297      H1304   1.084       .  S
C1298      C1299   1.420       .  A
C1299      C1300   1.406   1_554  A
C1299      C1306   1.520       .  S
C1300      C1301   1.402       .  A
C1300      H1305   1.083       .  S
C1301      C1302   1.418       .  A
C1302      C1303   1.520       .  S
C1303      F1307   1.385       .  S
C1303      F1308   1.384       .  S
C1303      F1309   1.382       .  S
C1306      F1310   1.383       .  S
C1306      F1311   1.384       .  S
C1306      F1312   1.385       .  S
C1313      C1314   1.405       .  A
C1313      C1318   1.407       .  A
C1313      H1320   1.083       .  S
C1315      C1316   1.407       .  A
C1315      C1322   1.521       .  S
C1316      H1321   1.083       .  S
C1317      C1318   1.418       .  A
C1318      C1319   1.520       .  S
C1319      F1323   1.385       .  S
C1319      F1324   1.382       .  S
C1319      F1325   1.383       .  S
C1322      F1326   1.384       .  S
C1322      F1327   1.383       .  S
C1322      F1328   1.385       .  S
C1329      C1330   1.402   1_545  A
C1330      C1331   1.418       .  A
C1331      C1338   1.517       .  S
C1334      C1335   1.523       .  S
C1335      F1339   1.385       .  S
C1335      F1340   1.384       .  S
C1338      F1343   1.382       .  S
C1338      F1344   1.384       .  S
C1345      C1346   1.405       .  A
C1345      C1350   1.408       .  A
C1345      H1352   1.083       .  S
C1346      C1347   1.422       .  A
C1347      C1348   1.410       .  A
C1347      C1354   1.521       .  S
C1348      C1349   1.406       .  A
C1348      H1353   1.083       .  S
C1349      C1350   1.423       .  A
C1350      C1351   1.521       .  S
C1351      F1355   1.385       .  S
C1351      F1356   1.383       .  S
C1351      F1357   1.383       .  S
C1354      F1358   1.384       .  S
C1354      F1359   1.383       .  S
C1354      F1360   1.385       .  S
C1361      C1362   1.405       .  A
C1361      C1366   1.408       .  A
C1361      H1368   1.083       .  S
C1362      C1363   1.419       .  A
C1363      C1364   1.407       .  A
C1363      C1370   1.520       .  S
C1364      C1365   1.404       .  A
C1364      H1369   1.083       .  S
C1365      C1366   1.419       .  A
C1366      C1367   1.520       .  S
C1367      F1371   1.385       .  S
C1367      F1372   1.382       .  S
C1367      F1373   1.384       .  S
C1370      F1374   1.384       .  S
C1370      F1375   1.382       .  S
C1370      F1376   1.385       .  S
C1377      C2850   1.400       .  A
C1377      C1382   1.410       .  A
C1377      H1384   1.083       .  S
C1378      C2235   1.477       .  S
C1378      C2849   1.400       .  A
C1378      C1379   1.414   1_655  A
C1379      C1380   1.406       .  A
C1379      C1386   1.519       .  S
C1380      C1381   1.407   1_455  A
C1380      H1385   1.082       .  S
C1381      C2854   1.426       .  A
C1382      C2853   1.427       .  A
C1382      C1383   1.521       .  S
C1383      F1387   1.385       .  S
C1383      F1388   1.383       .  S
C1383      F1389   1.384       .  S
C1386      F1390   1.381       .  S
C1386      F1391   1.381   1_455  S
C1386      F1392   1.385       .  S
C1393      C1394   1.407       .  A
C1393      C1398   1.410   1_554  A
C1393      H1400   1.082       .  S
C1394      C2867   1.418       .  A
C1395      C2866   1.418   1_655  A
C1395      C1396   1.403   1_554  A
C1395      C1402   1.521       .  S
C1396      C2869   1.404   1_655  A
C1396      H1401   1.083       .  S
C1397      C2868   1.404       .  A
C1397      C1398   1.419       .  A
C1398      C1399   1.520       .  S
C1399      F1403   1.385       .  S
C1399      F1404   1.384       .  S
C1399      F2877   1.383       .  S
C1402      F2878   1.382       .  S
C1402      F1407   1.384       .  S
C1402      F1408   1.385       .  S
F1405      C2871   1.383       .  S
F1406      C2874   1.382       .  S
C1409      C2882   1.407   1_565  A
C1409      C1414   1.406       .  A
C1409      H1416   1.083       .  S
C1410      C2881   1.407   1_545  A
C1411      C1412   1.408       .  A
C1411      C1418   1.520       .  S
C1412      H1417   1.083       .  S
C1413      C2886   1.414   1_545  A
C1414      C2885   1.414   1_565  A
C1414      C1415   1.520       .  S
C1415      F1419   1.385       .  S
C1415      F1420   1.384       .  S
C1415      F1421   1.382       .  S
C1418      F1422   1.384       .  S
C1418      F1423   1.382       .  S
C1418      F1424   1.385       .  S
C1425      C2162   1.404       .  A
C1425      C1430   1.405   1_556  A
C1425      H1432   1.082       .  S
C1426      C2277   1.490       .  S
C1426      C2161   1.405   1_455  A
C1426      C1427   1.421   1_545  A
C1427      C1428   1.408   1_556  A
C1427      C1434   1.521       .  S
C1428      H1433   1.082       .  S
C1429      C2902   1.424   1_455  A
C1430      C2901   1.424       .  A
C1430      C1431   1.523       .  S
C1431      F1435   1.385       .  S
C1431      F2908   1.384       .  S
C1431      F1437   1.384       .  S
C1434      F1438   1.383       .  S
C1434      F2911   1.384       .  S
C1434      F1440   1.385       .  S
F1436      C2903   1.384       .  S
F1439      C2906   1.384       .  S
C1441      C2914   1.404       .  A
C1441      C1446   1.409       .  A
C1441      H1448   1.083       .  S
C1442      C2234   1.486       .  S
C1442      C2913   1.404   1_455  A
C1442      C1443   1.419       .  A
C1443      C1444   1.408       .  A
C1443      C1450   1.519       .  S
C1444      C1445   1.405   1_455  A
C1444      H1449   1.083       .  S
C1445      C2918   1.421       .  A
C1446      C2917   1.421       .  A
C1446      C1447   1.520       .  S
C1447      F1451   1.385       .  S
C1447      F1452   1.383       .  S
C1447      F1453   1.383       .  S
C1450      F1454   1.382       .  S
C1450      F1455   1.382       .  S
C1450      F1456   1.385       .  S
C1457      C1458   1.407   1_455  A
C1457      C1462   1.408       .  A
C1457      H1464   1.083       .  S
C1458      C2233   1.493       .  S
C1458      C2931   1.423       .  A
C1459      C2930   1.423       .  A
C1459      C1460   1.407       .  A
C1459      C1466   1.522       .  S
C1460      C2933   1.405       .  A
C1460      H1465   1.082       .  S
C1461      C2932   1.405   1_455  A
C1461      C1462   1.421       .  A
C1462      C1463   1.521       .  S
C1463      F1467   1.385       .  S
C1463      F1468   1.384       .  S
C1463      F1469   1.382       .  S
C1466      F1470   1.383       .  S
C1466      F1471   1.381       .  S
C1466      F1472   1.385       .  S
O1473      C1483   1.276       .  A
O1473     Cu2217   2.006   1_545  S
O1474      C1484   1.279       .  A
O1474     Cu1481   2.018       .  S
O1475      C2221   1.280       .  A
O1475     Cu1481   2.014       .  S
O1476      C2222   1.278       .  A
O1476     Cu2217   2.016       .  S
O1477     Cu1482   1.999       .  S
O1478     Cu2218   1.990       .  S
O1479     Cu2218   2.011       .  S
O1480     Cu1482   2.012   1_545  S
Cu1481     O2209   2.009       .  S
Cu1481     O2212   2.017       .  S
Cu1482     O2214   2.000       .  S
Cu1482     O2215   2.014       .  S
C1483      C2197   1.487       .  S
C1484      C2181   1.492       .  S
C1485      O2211   1.280       .  A
C1485      C2165   1.492       .  S
C1486      O2212   1.278       .  A
C1486      C2146   1.484       .  S
O1487     Cu1495   2.017       .  S
O1488     Cu1495   2.022       .  S
O1489     Cu1495   2.010       .  S
O1490     Cu1495   2.008       .  S
O1491      C1500   1.277   1_655  A
O1491     Cu1496   2.009       .  S
O1492      C1499   1.279       .  A
O1492     Cu1496   2.014       .  S
O1493      C1498   1.278   1_655  A
O1493     Cu1496   2.005       .  S
O1494      C1497   1.276   1_655  A
O1494     Cu1496   2.005       .  S
C1500      C2130   1.484       .  S
O1501      C1511   1.280       .  A
O1501     Cu1509   2.020       .  S
O1502      C2248   1.279       .  A
O1502     Cu1509   2.020       .  S
O1503      C1513   1.278       .  A
O1503     Cu1509   2.012   1_545  S
O1504      C1514   1.278       .  A
O1504     Cu2245   2.014       .  S
O1505      C1514   1.278       .  A
O1505     Cu1510   2.011       .  S
O1506      C1513   1.277       .  A
O1506     Cu2246   2.011   1_545  S
O1507      C1512   1.275       .  A
O1507     Cu1510   1.999       .  S
O1508      C2247   1.275       .  A
O1508     Cu1510   1.998       .  S
Cu1509     O2240   2.014       .  S
Cu1509    Cu2246   2.368       .  S
Cu1510     O2242   2.011       .  S
Cu1510    Cu2245   2.367       .  S
C1511      O2244   1.274       .  A
C1511      C2050   1.485       .  S
C1512      O2238   1.279       .  A
C1512      C2069   1.489       .  S
C1513      C2098   1.484       .  S
C1514      C2082   1.489       .  S
O1515      C1525   1.277       .  A
O1515     Cu1523   2.006       .  S
O1516      C1526   1.275       .  A
O1516     Cu1523   1.999       .  S
O1517      C1527   1.279       .  A
O1517     Cu1523   2.012       .  S
O1518      C1528   1.278       .  A
O1518     Cu1523   2.019       .  S
O1519      C1528   1.278       .  A
O1519     Cu1524   2.008       .  S
O1520      C1527   1.277       .  A
O1520     Cu1524   2.013       .  S
O1521      C1526   1.277       .  A
O1521     Cu1524   2.002       .  S
O1522      C1525   1.277       .  A
O1522     Cu1524   2.007       .  S
Cu1523    Cu1524   2.372       .  S
C1525      C2018   1.472       .  S
C1526      C2034   1.474       .  S
C1527      C2085   1.490       .  S
C1528      C2101   1.485       .  S
O1529     Cu2273   1.999       .  S
O1530     Cu1537   2.002       .  S
O1531     Cu1537   2.011       .  S
O1532     Cu2273   2.011       .  S
O1533      C2278   1.276   1_655  A
O1533     Cu1538   2.003       .  S
O1534      C2277   1.277   1_655  A
O1534     Cu2274   1.999       .  S
O1535      C1540   1.279   1_655  A
O1535     Cu2274   2.025       .  S
O1536      C1539   1.280   1_655  A
O1536     Cu1538   2.021       .  S
Cu1537     O2265   2.005   1_545  S
Cu1537     O2268   2.011       .  S
Cu1538     O2270   1.997       .  S
Cu1538     O2271   2.026       .  S
C1539      C1986   1.488       .  S
C1540      C2002   1.486       .  S
C1541      O2270   1.277   1_455  A
C1542      O2269   1.276   1_455  A
O1543     Cu1551   2.015       .  S
O1544     Cu1551   2.014       .  S
O1545     Cu1551   2.022       .  S
O1546     Cu1551   2.021       .  S
O1547      C1556   1.277   1_655  A
O1547     Cu1552   2.003       .  S
O1548      C1555   1.275   1_655  A
O1548     Cu1552   2.001       .  S
O1549      C1554   1.275   1_655  A
O1549     Cu1552   1.996       .  S
O1550      C1553   1.277   1_655  A
O1550     Cu1552   1.994       .  S
C1553      C2133   1.484       .  S
C1555      C1989   1.490       .  S
C1556      C2005   1.486       .  S
O1557      C1567   1.278       .  A
O1557     Cu2301   2.013       .  S
O1558      C1568   1.276       .  A
O1558     Cu1565   2.007       .  S
O1559      C2305   1.278       .  A
O1559     Cu1565   2.015   1_565  S
O1560      C2306   1.277       .  A
O1560     Cu2301   2.013       .  S
O1561      C2306   1.278       .  A
O1561     Cu1566   1.999       .  S
O1562      C2305   1.277       .  A
O1562     Cu2302   2.007   1_565  S
O1563      C1568   1.280       .  A
O1563     Cu2302   2.022       .  S
O1564      C1567   1.277       .  A
O1564     Cu1566   2.010       .  S
Cu1565     O2293   2.008   1_545  S
Cu1565     O2296   2.014       .  S
Cu1565    Cu2302   2.369       .  S
Cu1566     O2298   1.999       .  S
Cu1566     O2299   2.014       .  S
Cu1566    Cu2301   2.365       .  S
C1567      C1922   1.485       .  S
C1568      C1938   1.493       .  S
C1569      O2295   1.277       .  A
C1569      O2298   1.278       .  A
C1569      C2066   1.489       .  S
C1570      O2296   1.278       .  A
C1570      O2297   1.277       .  A
C1570      C1906   1.483       .  S
O1571      C1581   1.278       .  A
O1571     Cu1579   2.013       .  S
O1572      C1582   1.278       .  A
O1572     Cu1579   2.008       .  S
O1573      C1583   1.280       .  A
O1573     Cu1579   2.011       .  S
O1574      C1584   1.277       .  A
O1574     Cu1579   2.017       .  S
O1575      C1584   1.279       .  A
O1575     Cu1580   2.012       .  S
O1576      C1583   1.277       .  A
O1576     Cu1580   2.014       .  S
O1577      C1582   1.275       .  A
O1577     Cu1580   1.995       .  S
O1578      C1581   1.276       .  A
O1578     Cu1580   1.996       .  S
Cu1579    Cu1580   2.370       .  S
C1581      C1893   1.475       .  S
C1582      C2037   1.473       .  S
C1583      C1941   1.494       .  S
C1584      C1925   1.487       .  S
O1585      C2331   1.278       .  A
O1586      C2332   1.278       .  A
O1586     Cu1593   2.008       .  S
O1587     Cu1593   2.005       .  S
O1589     Cu1594   2.015       .  S
O1591      C1596   1.274       .  A
O1592      C1595   1.275       .  A
O1592     Cu1594   1.989       .  S
C1595      O2321   1.278   1_545  A
C1595      C1874   1.474       .  S
C1596      O2322   1.278   1_545  A
C1596      C1858   1.479       .  S
C1597      C2885   1.475       .  S
C1598      C1842   1.479       .  S
O1599      C1609   1.274       .  A
O1600      C1610   1.275       .  A
O1600     Cu1607   1.995       .  S
O1601     Cu1607   2.009       .  S
O1603     Cu1608   2.011       .  S
O1605      C1610   1.278       .  A
O1606      C1609   1.277       .  A
O1606     Cu1608   2.002       .  S
C1609      C1810   1.472       .  S
C1610      C1826   1.475       .  S
C1611      C1794   1.486       .  S
C1612      C2117   1.487       .  S
O1613      C2359   1.277       .  A
O1613     Cu1621   1.999       .  S
O1614      C2360   1.278       .  A
O1614     Cu1621   2.002       .  S
O1615      C2361   1.277       .  A
O1615     Cu1621   1.999       .  S
O1616      C2362   1.275       .  A
O1616     Cu1621   1.998       .  S
O1617      C1626   1.278       .  A
O1617     Cu1622   1.996       .  S
O1618      C1625   1.276       .  A
O1618     Cu1622   2.004       .  S
O1619      C1624   1.276       .  A
O1619     Cu1622   2.010       .  S
O1620      C1623   1.277       .  A
O1620     Cu1622   2.011       .  S
Cu1621    Cu2358   2.370       .  S
Cu1622    Cu2357   2.370   1_545  S
C1623      O2349   1.278   1_545  A
C1623      C2053   1.480       .  S
C1624      O2350   1.279   1_545  A
C1624      C1781   1.492       .  S
C1625      O2351   1.277   1_545  A
C1625      C1877   1.474       .  S
C1626      O2352   1.274   1_545  A
C1626      C1861   1.478       .  S
O1627      C1637   1.278       .  A
O1627     Cu1635   2.005       .  S
O1628      C1638   1.278       .  A
O1628     Cu1635   2.008       .  S
O1629      C1639   1.276       .  A
O1629     Cu1635   2.008       .  S
O1630      C1640   1.276       .  A
O1630     Cu1635   2.011       .  S
O1631      C1640   1.280       .  A
O1631     Cu1636   2.013       .  S
O1632      C1639   1.280       .  A
O1632     Cu1636   2.013       .  S
O1633      C1638   1.274       .  A
O1633     Cu1636   1.993       .  S
O1634      C1637   1.274       .  A
O1634     Cu1636   1.991       .  S
Cu1635    Cu1636   2.368       .  S
C1637      C1813   1.474       .  S
C1638      C1829   1.474       .  S
C1639      C2021   1.495       .  S
C1640      C1762   1.491       .  S
O1641      C2387   1.276       .  A
O1641     Cu1649   2.007       .  S
O1642     Cu1649   2.015       .  S
O1643      C2389   1.275       .  A
O1643     Cu1649   1.996       .  S
O1644      C2390   1.275       .  A
O1645      C1654   1.278       .  A
O1645     Cu1650   2.009       .  S
O1646      C1653   1.277       .  A
O1647      C1652   1.278       .  A
O1647     Cu1650   2.012       .  S
O1648     Cu1650   2.012       .  S
C1651      O2377   1.275   1_545  A
C1651      C1970   1.498       .  S
C1652      C1845   1.479       .  S
C1653      O2379   1.275   1_545  A
C1653      C1746   1.473       .  S
C1654      O2380   1.275   1_545  A
C1654      C1733   1.472       .  S
O1655      C1665   1.279   1_455  A
O1655     Cu1663   2.013       .  S
O1656     Cu1663   2.010       .  S
O1657      C1667   1.275       .  A
O1657     Cu1663   1.996   1_655  S
O1658      C1668   1.277       .  A
O1659      C1668   1.275       .  A
O1659     Cu1664   1.996       .  S
O1660      C1667   1.278       .  A
O1661      C1666   1.276       .  A
O1661     Cu1664   2.001       .  S
O1662     Cu1664   2.002       .  S
C1665      C1797   1.486       .  S
C1666      C1954   1.474       .  S
C1667      C1698   1.476       .  S
C1668      C1714   1.475       .  S
O1669      C2415   1.279       .  A
O1669     Cu1677   2.011       .  S
O1670      C2416   1.278       .  A
O1670     Cu1677   2.012       .  S
O1671      C2417   1.276       .  A
O1671     Cu1677   2.004       .  S
O1672      C2418   1.276       .  A
O1672     Cu1677   2.005       .  S
O1673      C1682   1.279       .  A
O1673     Cu1678   2.009       .  S
O1674      C1681   1.279       .  A
O1674     Cu1678   2.014       .  S
O1675      C1680   1.275       .  A
O1675     Cu1678   1.994       .  S
O1676      C1679   1.275       .  A
O1676     Cu1678   1.996       .  S
Cu1677    Cu2414   2.372       .  S
Cu1678    Cu2413   2.372   1_545  S
C1679      O2405   1.278   1_545  A
C1679      C1749   1.474       .  S
C1680      O2406   1.278   1_545  A
C1680      C1730   1.472       .  S
C1681      O2407   1.276   1_545  A
C1681      C1909   1.477       .  S
C1682      O2408   1.276   1_545  A
C1682      C1778   1.490       .  S
O1683      C1693   1.275       .  A
O1683     Cu1691   2.004       .  S
O1684      C1694   1.275       .  A
O1684     Cu1691   1.999       .  S
O1685      C1695   1.276       .  A
O1685     Cu1691   2.000       .  S
O1686      C1696   1.278       .  A
O1686     Cu1691   2.003       .  S
O1687      C1696   1.275       .  A
O1687     Cu1692   1.995       .  S
O1688      C1695   1.276       .  A
O1688     Cu1692   1.993       .  S
O1689      C1694   1.279       .  A
O1689     Cu1692   2.017       .  S
O1690      C1693   1.280       .  A
O1690     Cu1692   2.020       .  S
Cu1691    Cu1692   2.368       .  S
C1693      C1765   1.492       .  S
C1694      C1890   1.486       .  S
C1695      C1701   1.475       .  S
C1696      C1717   1.476       .  S
C1697      C1698   1.404       .  A
C1697      C1702   1.405       .  A
C1697      H1704   1.083       .  S
C1698      C1699   1.419       .  A
C1699      C1700   1.403       .  A
C1699      C1706   1.521       .  S
C1700      C1701   1.402       .  A
C1700      H1705   1.083       .  S
C1701      C1702   1.418       .  A
C1702      C1703   1.521       .  S
C1703      F1707   1.385       .  S
C1703      F1708   1.384       .  S
C1703      F1709   1.382       .  S
C1706      F1710   1.383       .  S
C1706      F1711   1.383       .  S
C1706      F1712   1.385       .  S
C1713      C1714   1.403       .  A
C1713      C1718   1.403       .  A
C1713      H1720   1.083       .  S
C1714      C1715   1.417       .  A
C1715      C1716   1.404       .  A
C1715      C1722   1.520       .  S
C1716      C1717   1.403       .  A
C1716      H1721   1.082       .  S
C1717      C1718   1.418       .  A
C1718      C1719   1.521       .  S
C1719      F1723   1.385       .  S
C1719      F1724   1.384       .  S
C1719      F1725   1.382       .  S
C1722      F1726   1.382       .  S
C1722      F1727   1.384       .  S
C1722      F1728   1.385       .  S
C1729      C2466   1.401       .  A
C1729      C1734   1.405       .  A
C1729      H1736   1.083       .  S
C1730      C2465   1.402   1_545  A
C1730      C1731   1.417       .  A
C1731      C1732   1.404       .  A
C1731      C1738   1.520       .  S
C1732      C1733   1.401       .  A
C1732      H1737   1.083       .  S
C1733      C2470   1.417   1_545  A
C1734      C2469   1.416       .  A
C1734      C1735   1.518       .  S
C1735      F1739   1.385       .  S
C1735      F2476   1.384       .  S
C1735      F1741   1.381       .  S
C1738      F1742   1.382       .  S
C1738      F2479   1.383       .  S
C1738      F1744   1.385       .  S
F1740      C2471   1.384       .  S
F1743      C2474   1.383       .  S
C1745      C1746   1.402       .  A
C1745      C1750   1.405       .  A
C1745      H1752   1.083       .  S
C1746      C2483   1.418   1_545  A
C1747      C2482   1.418       .  A
C1747      C1748   1.404       .  A
C1747      C1754   1.520       .  S
C1748      C2485   1.401       .  A
C1748      H1753   1.083       .  S
C1749      C2484   1.401   1_545  A
C1749      C1750   1.419       .  A
C1750      C1751   1.520       .  S
C1751      F1755   1.385       .  S
C1751      F2492   1.383       .  S
C1751      F1757   1.382       .  S
C1754      F1758   1.382       .  S
C1754      F2495   1.383       .  S
C1754      F1760   1.385       .  S
F1756      C2487   1.383       .  S
F1759      C2490   1.383       .  S
C1761      C1762   1.404       .  A
C1761      C1766   1.407       .  A
C1761      H1768   1.083       .  S
C1762      C1763   1.422       .  A
C1763      C1764   1.409       .  A
C1763      C1770   1.520       .  S
C1764      C1765   1.405       .  A
C1764      H1769   1.083       .  S
C1765      C1766   1.423       .  A
C1766      C1767   1.521       .  S
C1767      F1771   1.385       .  S
C1767      F1772   1.383       .  S
C1767      F1773   1.383       .  S
C1770      F1774   1.383       .  S
C1770      F1775   1.382       .  S
C1770      F1776   1.385       .  S
C1777      C1778   1.405       .  A
C1777      C1782   1.407       .  A
C1777      H1784   1.083       .  S
C1778      C2515   1.422   1_545  A
C1779      C2514   1.421       .  A
C1779      C1780   1.407       .  A
C1779      C1786   1.522       .  S
C1780      C2517   1.406       .  A
C1780      H1785   1.083       .  S
C1781      C2516   1.406   1_545  A
C1781      C1782   1.423       .  A
C1782      C1783   1.521       .  S
C1783      F1787   1.385       .  S
C1783      F1788   1.383       .  S
C1783      F2525   1.384       .  S
C1786      F2526   1.385       .  S
C1786      F1791   1.383       .  S
C1786      F1792   1.383       .  S
F1789      C2519   1.384       .  S
F1790      C2522   1.385       .  S
C1793      C1798   1.407       .  A
C1793      H1800   1.083       .  S
C1794      C1795   1.420   1_655  A
C1795      C1796   1.408       .  A
C1795      C1802   1.520       .  S
C1796      C1797   1.405   1_455  A
C1796      H1801   1.083       .  S
C1798      C1799   1.521       .  S
C1799      F1803   1.385       .  S
C1799      F1804   1.383       .  S
C1799      F1805   1.384       .  S
C1802      F1806   1.384       .  S
C1802      F1807   1.383       .  S
C1802      F1808   1.384       .  S
C1809      C1810   1.401       .  A
C1809      C1814   1.403       .  A
C1809      H1816   1.082       .  S
C1810      C1811   1.417       .  A
C1811      C1812   1.404       .  A
C1811      C1818   1.521       .  S
C1812      C1813   1.403       .  A
C1812      H1817   1.082       .  S
C1813      C1814   1.418       .  A
C1814      C1815   1.521       .  S
C1815      F1819   1.385       .  S
C1815      F1820   1.382       .  S
C1815      F1821   1.384       .  S
C1818      F1822   1.384       .  S
C1818      F1823   1.382       .  S
C1818      F1824   1.385       .  S
C1825      C1826   1.403       .  A
C1825      C1830   1.405       .  A
C1825      H1832   1.083       .  S
C1826      C1827   1.417       .  A
C1827      C1828   1.404       .  A
C1827      C1834   1.519       .  S
C1828      C1829   1.402       .  A
C1828      H1833   1.083       .  S
C1829      C1830   1.418       .  A
C1830      C1831   1.520       .  S
C1831      F1835   1.385       .  S
C1831      F1836   1.382       .  S
C1831      F1837   1.384       .  S
C1834      F1838   1.383       .  S
C1834      F1839   1.382       .  S
C1834      F1840   1.385       .  S
C1841      C2578   1.405       .  A
C1841      C1846   1.409       .  A
C1841      H1848   1.083       .  S
C1842      C2577   1.403   1_545  A
C1843      C1844   1.407       .  A
C1843      C1850   1.518       .  S
C1844      H1849   1.083       .  S
C1845      C2582   1.418   1_545  A
C1846      C2581   1.419       .  A
C1846      C1847   1.520       .  S
C1847      F1851   1.385       .  S
C1847      F1852   1.384       .  S
C1847      F1853   1.382       .  S
C1850      F1854   1.382       .  S
C1850      F1855   1.383       .  S
C1850      F1856   1.385       .  S
C1857      C2594   1.404       .  A
C1857      C1862   1.407       .  A
C1857      H1864   1.083       .  S
C1858      C2593   1.405   1_545  A
C1858      C1859   1.420       .  A
C1859      C1860   1.402       .  A
C1859      C1866   1.522       .  S
C1860      C1861   1.402       .  A
C1860      H1865   1.083       .  S
C1861      C2598   1.420   1_545  A
C1862      C2597   1.420       .  A
C1862      C1863   1.521       .  S
C1863      F1867   1.385       .  S
C1863      F2604   1.383       .  S
C1863      F1869   1.383       .  S
C1866      F1870   1.383       .  S
C1866      F2607   1.384       .  S
C1866      F1872   1.385       .  S
F1868      C2599   1.383       .  S
F1871      C2602   1.384       .  S
C1873      C1874   1.404       .  A
C1873      C1878   1.404       .  A
C1873      H1880   1.083       .  S
C1874      C2611   1.416   1_545  A
C1875      C2610   1.416       .  A
C1875      C1876   1.404       .  A
C1875      C1882   1.519       .  S
C1876      C2613   1.402       .  A
C1876      H1881   1.084       .  S
C1877      C2612   1.403   1_545  A
C1877      C1878   1.417       .  A
C1878      C1879   1.520       .  S
C1879      F1883   1.385       .  S
C1879      F1884   1.382       .  S
C1879      F1885   1.384       .  S
C1882      F1886   1.383       .  S
C1882      F1887   1.382       .  S
C1882      F1888   1.385       .  S
C1889      C1890   1.407       .  A
C1889      C1894   1.408       .  A
C1889      H1896   1.083       .  S
C1890      C1891   1.422       .  A
C1891      C1892   1.405       .  A
C1891      C1898   1.521       .  S
C1892      C1893   1.400       .  A
C1892      H1897   1.083       .  S
C1893      C1894   1.415       .  A
C1894      C1895   1.520       .  S
C1895      F1899   1.384       .  S
C1895      F1900   1.383       .  S
C1895      F1901   1.383       .  S
C1898      F1902   1.384       .  S
C1898      F1903   1.383       .  S
C1898      F1904   1.385       .  S
C1905      C2642   1.406       .  A
C1905      C1910   1.404       .  A
C1905      H1912   1.083       .  S
C1906      C2641   1.405   1_545  A
C1906      C1907   1.420       .  A
C1907      C1908   1.408       .  A
C1907      C1914   1.519       .  S
C1908      C1909   1.403       .  A
C1908      H1913   1.083       .  S
C1909      C2646   1.416   1_545  A
C1910      C2645   1.415       .  A
C1910      C1911   1.519       .  S
C1911      F1915   1.385       .  S
C1911      F1916   1.382       .  S
C1911      F1917   1.383       .  S
C1914      F1918   1.382       .  S
C1914      F1919   1.384       .  S
C1914      F1920   1.385       .  S
C1921      C1922   1.405       .  A
C1921      C1926   1.410       .  A
C1921      H1928   1.083       .  S
C1922      C1923   1.419       .  A
C1923      C1924   1.406       .  A
C1923      C1930   1.520       .  S
C1924      C1925   1.404       .  A
C1924      H1929   1.083       .  S
C1925      C1926   1.421       .  A
C1926      C1927   1.519       .  S
C1927      F1931   1.385       .  S
C1927      F1932   1.382       .  S
C1927      F1933   1.382       .  S
C1930      F1934   1.383       .  S
C1930      F1935   1.382       .  S
C1930      F1936   1.385       .  S
C1937      C1938   1.406       .  A
C1937      C1942   1.411       .  A
C1937      H1944   1.083       .  S
C1938      C1939   1.422       .  A
C1939      C1940   1.407       .  A
C1939      C1946   1.521       .  S
C1940      C1941   1.406       .  A
C1940      H1945   1.083       .  S
C1941      C1942   1.423       .  A
C1942      C1943   1.521       .  S
C1943      F1947   1.385       .  S
C1943      F1948   1.383       .  S
C1943      F1949   1.383       .  S
C1946      F1950   1.383       .  S
C1946      F1951   1.384       .  S
C1946      F1952   1.385       .  S
C1953      C1958   1.406       .  A
C1953      H1960   1.083       .  S
C1954      C1955   1.416       .  A
C1955      C1956   1.407       .  A
C1955      C1962   1.520       .  S
C1956      C1957   1.406       .  A
C1956      H1961   1.083       .  S
C1958      C1959   1.521       .  S
C1959      F1963   1.385       .  S
C1959      F1964   1.383       .  S
C1959      F1965   1.384       .  S
C1962      F1966   1.382       .  S
C1962      F1967   1.383       .  S
C1962      F1968   1.385       .  S
C1969      C1974   1.406       .  A
C1969      H1976   1.082       .  S
C1970      C2707   1.430   1_545  A
C1971      C2706   1.430       .  A
C1971      C1972   1.408       .  A
C1971      C1978   1.522       .  S
C1972      C2709   1.397       .  A
C1972      H1977   1.083       .  S
C1973      C2708   1.396   1_545  A
C1974      C1975   1.518       .  S
C1975      F1979   1.384       .  S
C1975      F1980   1.383       .  S
C1975      F1981   1.383   1_455  S
C1978      F1982   1.385       .  S
C1978      F1983   1.383       .  S
C1978      F1984   1.382       .  S
C1985      C1986   1.404   1_655  A
C1985      C1990   1.409       .  A
C1985      H1992   1.083       .  S
C1987      C1988   1.408       .  A
C1987      C1994   1.521       .  S
C1988      H1993   1.083       .  S
C1989      C1990   1.423   1_455  A
C1990      C1991   1.521       .  S
C1991      F1995   1.385       .  S
C1991      F1996   1.384       .  S
C1991      F1997   1.383       .  S
C1994      F1998   1.383       .  S
C1994      F1999   1.384       .  S
C1994      F2000   1.384       .  S
C2001      C2006   1.408       .  A
C2001      H2008   1.083       .  S
C2002      C2003   1.418   1_455  A
C2003      C2004   1.408       .  A
C2003      C2010   1.519       .  S
C2004      C2005   1.406   1_655  A
C2004      H2009   1.083       .  S
C2006      C2007   1.520       .  S
C2007      F2011   1.385       .  S
C2007      F2012   1.383       .  S
C2007      F2013   1.384       .  S
C2010      F2014   1.384       .  S
C2010      F2015   1.382       .  S
C2010      F2016   1.385       .  S
C2017      C2018   1.398       .  A
C2017      C2022   1.409       .  A
C2017      H2024   1.083       .  S
C2018      C2019   1.411       .  A
C2019      C2020   1.406       .  A
C2019      C2026   1.520       .  S
C2020      C2021   1.410       .  A
C2020      H2025   1.082       .  S
C2021      C2022   1.428       .  A
C2022      C2023   1.521       .  S
C2023      F2027   1.383       .  S
C2023      F2028   1.383       .  S
C2023      F2029   1.385       .  S
C2026      F2030   1.384       .  S
C2026      F2031   1.382       .  S
C2026      F2032   1.384       .  S
C2033      C2034   1.402       .  A
C2033      C2038   1.404   1_554  A
C2033      H2040   1.084       .  S
C2034      C2035   1.418       .  A
C2035      C2036   1.404   1_554  A
C2035      C2042   1.520       .  S
C2036      C2037   1.401       .  A
C2036      H2041   1.083       .  S
C2037      C2038   1.418       .  A
C2038      C2039   1.520       .  S
C2039      F2043   1.385       .  S
C2039      F2044   1.383       .  S
C2039      F2045   1.382       .  S
C2042      F2046   1.382       .  S
C2042      F2047   1.383       .  S
C2042      F2048   1.385       .  S
C2049      C2050   1.405   1_545  A
C2049      C2054   1.407       .  A
C2049      H2056   1.083       .  S
C2050      C2787   1.422       .  A
C2051      C2786   1.419       .  A
C2051      C2052   1.405       .  A
C2051      C2058   1.520       .  S
C2052      C2789   1.403       .  A
C2052      H2057   1.083       .  S
C2053      C2788   1.402   1_545  A
C2053      C2054   1.418       .  A
C2054      C2055   1.520       .  S
C2055      F2059   1.385       .  S
C2055      F2060   1.382       .  S
C2055      F2061   1.382       .  S
C2058      F2062   1.384       .  S
C2058      F2063   1.382       .  S
C2058      F2064   1.385       .  S
C2065      C2066   1.405       .  A
C2065      C2806   1.405   1_556  A
C2065      H2808   1.083       .  S
C2066      C2067   1.421       .  A
C2067      C2804   1.408   1_556  A
C2067      C2074   1.521       .  S
C2068      C2803   1.408   1_554  A
C2068      C2805   1.402       .  A
C2068      H2809   1.083       .  S
C2069      C2804   1.406       .  A
C2069      C2806   1.422       .  A
C2070      C2801   1.406   1_554  A
C2070      C2805   1.419   1_545  A
C2070      C2071   1.521       .  S
C2071      F2075   1.385       .  S
C2071      F2076   1.383       .  S
C2071      F2813   1.382       .  S
H2072      C2801   1.084       .  S
H2073      C2804   1.083       .  S
C2074      F2814   1.383       .  S
C2074      F2079   1.383       .  S
C2074      F2080   1.385       .  S
F2077      C2807   1.383       .  S
F2078      C2810   1.382       .  S
C2081      C2082   1.405       .  A
C2081      C2086   1.410       .  A
C2081      H2088   1.083       .  S
C2082      C2083   1.420       .  A
C2083      C2084   1.407       .  A
C2083      C2090   1.520       .  S
C2084      C2085   1.405       .  A
C2084      H2089   1.083       .  S
C2085      C2086   1.422       .  A
C2086      C2087   1.521       .  S
C2087      F2091   1.385       .  S
C2087      F2092   1.383       .  S
C2087      F2093   1.383       .  S
C2090      F2094   1.384       .  S
C2090      F2095   1.382       .  S
C2090      F2096   1.385       .  S
C2097      C2098   1.405       .  A
C2097      C2102   1.409       .  A
C2097      H2104   1.083       .  S
C2098      C2099   1.419       .  A
C2099      C2100   1.407       .  A
C2099      C2106   1.520       .  S
C2100      C2101   1.404       .  A
C2100      H2105   1.083       .  S
C2101      C2102   1.420       .  A
C2102      C2103   1.520       .  S
C2103      F2107   1.385       .  S
C2103      F2108   1.382       .  S
C2103      F2109   1.384       .  S
C2106      F2110   1.384       .  S
C2106      F2111   1.383       .  S
C2106      F2112   1.385       .  S
C2113      C2118   1.408       .  A
C2113      H2120   1.083       .  S
C2114      C2115   1.419       .  A
C2115      C2116   1.408       .  A
C2115      C2122   1.520       .  S
C2116      C2117   1.405       .  A
C2116      H2121   1.082       .  S
C2118      C2119   1.519       .  S
C2119      F2123   1.385       .  S
C2119      F2124   1.382       .  S
C2119      F2125   1.382       .  S
C2122      F2126   1.381       .  S
C2122      F2127   1.381       .  S
C2122      F2128   1.385       .  S
C2129      C2130   1.407       .  A
C2129      C2134   1.410   1_554  A
C2129      H2136   1.082       .  S
C2131      C2132   1.403   1_554  A
C2131      C2138   1.520       .  S
C2132      H2137   1.083       .  S
C2133      C2134   1.419       .  A
C2134      C2135   1.520       .  S
C2135      F2139   1.385       .  S
C2135      F2140   1.384       .  S
C2138      F2143   1.384       .  S
C2138      F2144   1.385       .  S
C2145      C2150   1.405       .  A
C2145      H2152   1.083       .  S
C2146      C2883   1.421       .  A
C2147      C2882   1.421       .  A
C2147      C2148   1.408       .  A
C2147      C2154   1.520       .  S
C2148      C2885   1.402       .  A
C2148      H2153   1.083       .  S
C2149      C2333   1.477       .  S
C2149      C2884   1.402       .  A
C2150      C2151   1.519       .  S
C2151      F2155   1.385       .  S
C2151      F2156   1.384       .  S
C2151      F2157   1.382       .  S
C2154      F2158   1.384       .  S
C2154      F2159   1.383       .  S
C2154      F2160   1.385       .  S
C2161      C2166   1.407   1_556  A
C2161      H2168   1.082       .  S
C2162      C2163   1.421       .  A
C2163      C2164   1.407   1_556  A
C2163      C2170   1.521       .  S
C2164      C2901   1.405       .  A
C2164      H2169   1.082       .  S
C2165      C2900   1.406       .  A
C2166      C2167   1.523       .  S
C2167      F2171   1.385       .  S
C2167      F2173   1.383       .  S
C2170      F2174   1.383       .  S
C2170      F2176   1.384       .  S
C2177      C2182   1.408       .  A
C2177      H2184   1.083       .  S
C2178      C2179   1.420       .  A
C2179      C2180   1.409       .  A
C2179      C2186   1.519       .  S
C2180      C2181   1.406       .  A
C2180      H2185   1.083       .  S
C2182      C2183   1.520       .  S
C2183      F2187   1.385       .  S
C2183      F2188   1.383       .  S
C2183      F2189   1.383       .  S
C2186      F2190   1.383       .  S
C2186      F2191   1.382       .  S
C2186      F2192   1.385       .  S
C2193      C2194   1.405       .  A
C2193      C2198   1.408       .  A
C2193      H2200   1.083       .  S
C2195      C2196   1.408       .  A
C2195      C2202   1.522       .  S
C2196      H2201   1.083       .  S
C2197      C2198   1.421       .  A
C2198      C2199   1.521       .  S
C2199      F2203   1.385       .  S
C2199      F2204   1.384       .  S
C2199      F2205   1.382       .  S
C2202      F2206   1.383       .  S
C2202      F2207   1.382       .  S
C2202      F2208   1.385       .  S
O2209      C2219   1.276       .  A
O2210      C2220   1.278       .  A
O2210     Cu2217   2.012       .  S
O2211     Cu2217   2.015       .  S
O2213     Cu2218   1.997       .  S
O2216     Cu2218   2.009       .  S
C2219      C2933   1.491       .  S
C2220      C2917   1.488       .  S
C2221      C2901   1.489       .  S
C2222      C2882   1.486   1_565  S
O2223     Cu2231   2.017       .  S
O2224     Cu2231   2.020       .  S
O2225     Cu2231   2.010       .  S
O2226     Cu2231   2.008       .  S
O2227      C2236   1.277   1_655  A
O2227     Cu2232   2.006       .  S
O2228      C2235   1.278       .  A
O2228     Cu2232   2.015       .  S
O2229      C2234   1.277   1_655  A
O2229     Cu2232   2.006       .  S
O2230      C2233   1.276       .  A
O2230     Cu2232   2.006       .  S
C2236      C2866   1.483       .  S
O2237      C2247   1.279       .  A
O2237     Cu2245   2.012       .  S
O2238     Cu2245   2.010       .  S
O2239      C2249   1.278       .  A
O2239     Cu2245   2.010       .  S
O2240      C2250   1.277       .  A
O2241      C2250   1.280       .  A
O2241     Cu2246   2.015       .  S
O2242      C2249   1.277       .  A
O2243      C2248   1.275       .  A
O2243     Cu2246   1.998       .  S
O2244     Cu2246   1.995       .  S
C2247      C2786   1.481       .  S
C2248      C2805   1.479       .  S
C2249      C2834   1.484       .  S
C2250      C2818   1.493       .  S
O2251      C2261   1.276       .  A
O2251     Cu2259   2.001       .  S
O2252      C2262   1.275       .  A
O2252     Cu2259   1.998       .  S
O2253      C2263   1.280       .  A
O2253     Cu2259   2.017       .  S
O2254      C2264   1.278       .  A
O2254     Cu2259   2.017       .  S
O2255      C2264   1.277       .  A
O2255     Cu2260   2.005       .  S
O2256      C2263   1.276       .  A
O2256     Cu2260   2.009       .  S
O2257      C2262   1.279       .  A
O2257     Cu2260   2.011       .  S
O2258      C2261   1.278       .  A
O2258     Cu2260   2.012       .  S
Cu2259    Cu2260   2.370       .  S
C2261      C2754   1.474       .  S
C2262      C2770   1.478       .  S
C2263      C2821   1.493       .  S
C2264      C2837   1.483       .  S
O2266     Cu2273   1.999       .  S
O2267     Cu2273   2.006       .  S
O2269     Cu2274   2.002       .  S
O2271      C2276   1.279   1_655  A
O2272      C2275   1.281   1_655  A
O2272     Cu2274   2.023   1_565  S
C2275      C2722   1.491       .  S
C2276      C2738   1.487       .  S
O2279     Cu2287   2.017       .  S
O2280     Cu2287   2.016       .  S
O2281     Cu2287   2.023       .  S
O2282     Cu2287   2.019       .  S
O2283      C2292   1.278   1_655  A
O2283     Cu2288   2.007       .  S
O2284      C2291   1.276   1_655  A
O2284     Cu2288   2.007       .  S
O2285      C2290   1.275   1_655  A
O2285     Cu2288   1.999       .  S
O2286      C2289   1.277   1_655  A
O2286     Cu2288   1.995       .  S
C2289      C2869   1.484       .  S
C2291      C2725   1.493       .  S
C2292      C2741   1.488       .  S
O2293      C2303   1.277       .  A
O2294      C2304   1.276       .  A
O2294     Cu2301   2.008       .  S
O2295     Cu2301   2.011       .  S
O2297     Cu2302   1.999       .  S
O2299      C2304   1.279       .  A
O2300      C2303   1.279       .  A
O2300     Cu2302   2.023   1_565  S
C2303      C2658   1.484       .  S
C2304      C2674   1.492       .  S
C2305      C2802   1.480       .  S
C2306      C2642   1.485       .  S
O2307      C2317   1.277       .  A
O2307     Cu2315   2.007       .  S
O2308      C2318   1.278       .  A
O2308     Cu2315   2.009       .  S
O2309      C2319   1.279       .  A
O2309     Cu2315   2.005       .  S
O2310      C2320   1.277       .  A
O2310     Cu2315   2.011       .  S
O2311      C2320   1.280       .  A
O2311     Cu2316   2.019       .  S
O2312      C2319   1.277       .  A
O2312     Cu2316   2.014       .  S
O2313      C2318   1.276       .  A
O2313     Cu2316   2.003       .  S
O2314      C2317   1.277       .  A
O2314     Cu2316   2.000       .  S
Cu2315    Cu2316   2.370       .  S
C2317      C2629   1.477       .  S
C2318      C2773   1.477       .  S
C2319      C2677   1.492       .  S
C2320      C2661   1.486       .  S
O2322     Cu2329   2.004       .  S
O2323     Cu2329   2.004       .  S
O2325     Cu2330   2.013       .  S
O2327      C2332   1.274       .  A
O2328      C2331   1.275       .  A
O2328     Cu2330   1.993       .  S
C2331      C2610   1.475       .  S
C2332      C2594   1.481       .  S
C2334      C2578   1.484       .  S
O2335      C2345   1.275       .  A
O2336      C2346   1.276       .  A
O2336     Cu2343   2.003       .  S
O2337     Cu2343   2.016       .  S
O2339     Cu2344   2.006       .  S
O2341      C2346   1.276       .  A
O2342      C2345   1.277       .  A
O2342     Cu2344   1.992       .  S
C2345      C2546   1.477       .  S
C2346      C2562   1.473       .  S
C2347      C2530   1.488       .  S
C2348      C2853   1.493       .  S
O2349     Cu2357   2.007       .  S
O2350     Cu2357   2.007       .  S
O2351     Cu2357   1.995       .  S
O2352     Cu2357   1.994       .  S
O2353      C2362   1.278       .  A
O2353     Cu2358   1.998       .  S
O2354      C2361   1.276       .  A
O2354     Cu2358   2.005       .  S
O2355      C2360   1.277       .  A
O2355     Cu2358   2.011       .  S
O2356      C2359   1.278       .  A
O2356     Cu2358   2.013       .  S
C2359      C2789   1.479       .  S
C2360      C2517   1.490       .  S
C2361      C2613   1.473       .  S
C2362      C2597   1.481       .  S
O2363      C2373   1.277       .  A
O2363     Cu2371   1.994       .  S
O2364      C2374   1.276       .  A
O2364     Cu2371   1.997       .  S
O2365      C2375   1.275       .  A
O2365     Cu2371   2.002       .  S
O2366      C2376   1.276       .  A
O2366     Cu2371   2.006       .  S
O2367      C2376   1.279       .  A
O2367     Cu2372   2.014       .  S
O2368      C2375   1.280       .  A
O2368     Cu2372   2.015       .  S
O2369      C2374   1.276       .  A
O2369     Cu2372   2.002       .  S
O2370      C2373   1.276       .  A
O2370     Cu2372   2.001       .  S
Cu2371    Cu2372   2.369       .  S
C2373      C2549   1.480       .  S
C2374      C2565   1.472       .  S
C2375      C2757   1.490       .  S
C2376      C2498   1.486       .  S
O2377     Cu2385   2.003       .  S
O2378     Cu2385   2.012       .  S
O2379     Cu2385   1.995       .  S
O2381      C2390   1.277       .  A
O2381     Cu2386   2.008       .  S
O2382      C2389   1.277       .  A
O2383      C2388   1.278       .  A
O2383     Cu2386   2.009       .  S
O2384     Cu2386   2.011       .  S
C2387      C2706   1.499       .  S
C2388      C2581   1.484       .  S
C2389      C2482   1.474       .  S
C2390      C2469   1.471       .  S
O2391      C2401   1.278       .  A
O2391     Cu2399   2.010   1_655  S
O2392     Cu2399   2.010       .  S
O2393      C2403   1.277       .  A
O2393     Cu2399   2.005   1_655  S
O2394      C2404   1.278       .  A
O2395      C2404   1.273       .  A
O2395     Cu2400   1.981       .  S
O2396      C2403   1.276       .  A
O2397      C2402   1.277       .  A
O2397     Cu2400   2.006       .  S
O2398     Cu2400   2.004       .  S
C2401      C2533   1.485       .  S
C2402      C2690   1.475       .  S
C2403      C2434   1.479       .  S
C2404      C2450   1.473       .  S
O2405     Cu2413   2.007       .  S
O2406     Cu2413   2.009       .  S
O2407     Cu2413   2.001       .  S
O2408     Cu2413   2.005       .  S
O2409      C2418   1.279       .  A
O2409     Cu2414   2.006       .  S
O2410      C2417   1.278       .  A
O2410     Cu2414   2.012       .  S
O2411      C2416   1.274       .  A
O2411     Cu2414   1.990       .  S
O2412      C2415   1.274       .  A
O2412     Cu2414   1.995       .  S
C2415      C2485   1.475       .  S
C2416      C2466   1.470       .  S
C2417      C2645   1.477       .  S
C2418      C2514   1.488       .  S
O2419      C2429   1.275       .  A
O2419     Cu2427   2.002       .  S
O2420      C2430   1.275       .  A
O2420     Cu2427   2.000       .  S
O2421      C2431   1.276       .  A
O2421     Cu2427   2.007       .  S
O2422      C2432   1.278       .  A
O2422     Cu2427   2.000       .  S
O2423      C2432   1.274       .  A
O2423     Cu2428   1.989       .  S
O2424      C2431   1.276       .  A
O2424     Cu2428   1.990       .  S
O2425      C2430   1.279       .  A
O2425     Cu2428   2.014       .  S
O2426      C2429   1.280       .  A
O2426     Cu2428   2.019       .  S
Cu2427    Cu2428   2.369       .  S
C2429      C2501   1.488       .  S
C2430      C2626   1.482       .  S
C2431      C2437   1.481       .  S
C2432      C2453   1.472       .  S
C2433      C2434   1.405       .  A
C2433      C2438   1.405       .  A
C2433      H2440   1.083       .  S
C2434      C2435   1.418       .  A
C2435      C2436   1.403       .  A
C2435      C2442   1.521       .  S
C2436      C2437   1.405       .  A
C2436      H2441   1.083       .  S
C2437      C2438   1.419       .  A
C2438      C2439   1.520       .  S
C2439      F2443   1.385       .  S
C2439      F2444   1.384       .  S
C2439      F2445   1.383       .  S
C2442      F2446   1.382       .  S
C2442      F2447   1.384       .  S
C2442      F2448   1.385       .  S
C2449      C2450   1.403       .  A
C2449      C2454   1.404       .  A
C2449      H2456   1.083       .  S
C2450      C2451   1.418       .  A
C2451      C2452   1.400       .  A
C2451      C2458   1.521       .  S
C2452      C2453   1.401       .  A
C2452      H2457   1.082       .  S
C2453      C2454   1.418       .  A
C2454      C2455   1.521       .  S
C2455      F2459   1.385       .  S
C2455      F2460   1.383       .  S
C2455      F2461   1.382       .  S
C2458      F2462   1.383       .  S
C2458      F2463   1.384       .  S
C2458      F2464   1.385       .  S
C2465      C2470   1.406       .  A
C2465      H2472   1.083       .  S
C2466      C2467   1.417       .  A
C2467      C2468   1.404       .  A
C2467      C2474   1.520       .  S
C2468      C2469   1.400       .  A
C2468      H2473   1.083       .  S
C2470      C2471   1.519       .  S
C2471      F2475   1.385       .  S
C2471      F2477   1.382       .  S
C2474      F2478   1.382       .  S
C2474      F2480   1.384       .  S
C2481      C2482   1.402       .  A
C2481      C2486   1.406       .  A
C2481      H2488   1.083       .  S
C2483      C2484   1.404       .  A
C2483      C2490   1.520       .  S
C2484      H2489   1.083       .  S
C2485      C2486   1.419       .  A
C2486      C2487   1.520       .  S
C2487      F2491   1.385       .  S
C2487      F2493   1.382       .  S
C2490      F2494   1.382       .  S
C2490      F2496   1.385       .  S
C2497      C2498   1.403       .  A
C2497      C2502   1.408       .  A
C2497      H2504   1.083       .  S
C2498      C2499   1.421       .  A
C2499      C2500   1.407       .  A
C2499      C2506   1.520       .  S
C2500      C2501   1.404       .  A
C2500      H2505   1.083       .  S
C2501      C2502   1.422       .  A
C2502      C2503   1.520       .  S
C2503      F2507   1.385       .  S
C2503      F2508   1.383       .  S
C2503      F2509   1.382       .  S
C2506      F2510   1.383       .  S
C2506      F2511   1.382       .  S
C2506      F2512   1.385       .  S
C2513      C2514   1.405       .  A
C2513      C2518   1.406       .  A
C2513      H2520   1.083       .  S
C2515      C2516   1.407       .  A
C2515      C2522   1.522       .  S
C2516      H2521   1.082       .  S
C2517      C2518   1.422       .  A
C2518      C2519   1.521       .  S
C2519      F2523   1.385       .  S
C2519      F2524   1.383       .  S
C2522      F2527   1.383       .  S
C2522      F2528   1.383       .  S
C2529      C2534   1.405       .  A
C2529      H2536   1.083       .  S
C2530      C2531   1.421   1_655  A
C2531      C2532   1.409       .  A
C2531      C2538   1.520       .  S
C2532      C2533   1.406   1_455  A
C2532      H2537   1.083       .  S
C2534      C2535   1.521       .  S
C2535      F2539   1.385       .  S
C2535      F2540   1.383       .  S
C2535      F2541   1.384       .  S
C2538      F2542   1.383       .  S
C2538      F2543   1.383       .  S
C2538      F2544   1.385       .  S
C2545      C2546   1.404       .  A
C2545      C2550   1.403       .  A
C2545      H2552   1.083       .  S
C2546      C2547   1.418       .  A
C2547      C2548   1.404       .  A
C2547      C2554   1.521       .  S
C2548      C2549   1.405       .  A
C2548      H2553   1.082       .  S
C2549      C2550   1.419       .  A
C2550      C2551   1.521       .  S
C2551      F2555   1.385       .  S
C2551      F2556   1.383       .  S
C2551      F2557   1.384       .  S
C2554      F2558   1.384       .  S
C2554      F2559   1.383       .  S
C2554      F2560   1.385       .  S
C2561      C2562   1.404       .  A
C2561      C2566   1.405       .  A
C2561      H2568   1.083       .  S
C2562      C2563   1.417       .  A
C2563      C2564   1.403       .  A
C2563      C2570   1.520       .  S
C2564      C2565   1.402       .  A
C2564      H2569   1.082       .  S
C2565      C2566   1.416       .  A
C2566      C2567   1.519       .  S
C2567      F2571   1.385       .  S
C2567      F2572   1.382       .  S
C2567      F2573   1.383       .  S
C2570      F2574   1.384       .  S
C2570      F2575   1.382       .  S
C2570      F2576   1.385       .  S
C2577      C2582   1.408       .  A
C2577      H2584   1.083       .  S
C2579      C2580   1.406       .  A
C2579      C2586   1.518       .  S
C2580      H2585   1.083       .  S
C2582      C2583   1.519       .  S
C2583      F2587   1.385       .  S
C2583      F2588   1.383       .  S
C2583      F2589   1.382       .  S
C2586      F2590   1.382       .  S
C2586      F2591   1.382       .  S
C2586      F2592   1.384       .  S
C2593      C2598   1.406       .  A
C2593      H2600   1.083       .  S
C2594      C2595   1.421       .  A
C2595      C2596   1.402       .  A
C2595      C2602   1.522       .  S
C2596      C2597   1.403       .  A
C2596      H2601   1.083       .  S
C2598      C2599   1.522       .  S
C2599      F2603   1.385       .  S
C2599      F2605   1.383       .  S
C2602      F2606   1.383       .  S
C2602      F2608   1.385       .  S
C2609      C2610   1.403       .  A
C2609      C2614   1.405       .  A
C2609      H2616   1.082       .  S
C2611      C2612   1.403       .  A
C2611      C2618   1.520       .  S
C2612      H2617   1.084       .  S
C2613      C2614   1.417       .  A
C2614      C2615   1.520       .  S
C2615      F2619   1.385       .  S
C2615      F2620   1.382       .  S
C2615      F2621   1.383       .  S
C2618      F2622   1.383       .  S
C2618      F2623   1.382       .  S
C2618      F2624   1.385       .  S
C2625      C2626   1.404       .  A
C2625      C2630   1.406       .  A
C2625      H2632   1.083       .  S
C2626      C2627   1.422       .  A
C2627      C2628   1.406       .  A
C2627      C2634   1.521       .  S
C2628      C2629   1.402       .  A
C2628      H2633   1.083       .  S
C2629      C2630   1.417       .  A
C2630      C2631   1.520       .  S
C2631      F2635   1.384       .  S
C2631      F2636   1.384       .  S
C2631      F2637   1.382       .  S
C2634      F2638   1.383       .  S
C2634      F2639   1.382       .  S
C2634      F2640   1.385       .  S
C2641      C2646   1.405       .  A
C2641      H2648   1.083       .  S
C2642      C2643   1.421       .  A
C2643      C2644   1.408       .  A
C2643      C2650   1.520       .  S
C2644      C2645   1.403       .  A
C2644      H2649   1.083       .  S
C2646      C2647   1.519       .  S
C2647      F2651   1.385       .  S
C2647      F2652   1.382       .  S
C2647      F2653   1.383       .  S
C2650      F2654   1.383       .  S
C2650      F2655   1.383       .  S
C2650      F2656   1.385       .  S
C2657      C2658   1.404       .  A
C2657      C2662   1.408       .  A
C2657      H2664   1.082       .  S
C2658      C2659   1.417       .  A
C2659      C2660   1.409       .  A
C2659      C2666   1.519       .  S
C2660      C2661   1.405       .  A
C2660      H2665   1.084       .  S
C2661      C2662   1.420       .  A
C2662      C2663   1.519       .  S
C2663      F2667   1.385       .  S
C2663      F2668   1.383       .  S
C2663      F2669   1.383       .  S
C2666      F2670   1.384       .  S
C2666      F2671   1.381       .  S
C2666      F2672   1.385       .  S
C2673      C2674   1.407       .  A
C2673      C2678   1.410       .  A
C2673      H2680   1.083       .  S
C2674      C2675   1.422       .  A
C2675      C2676   1.407       .  A
C2675      C2682   1.522       .  S
C2676      C2677   1.406       .  A
C2676      H2681   1.083       .  S
C2677      C2678   1.422       .  A
C2678      C2679   1.521       .  S
C2679      F2683   1.385       .  S
C2679      F2684   1.384       .  S
C2679      F2685   1.383       .  S
C2682      F2686   1.383       .  S
C2682      F2687   1.384       .  S
C2682      F2688   1.385       .  S
C2689      C2694   1.407       .  A
C2689      H2696   1.083       .  S
C2690      C2691   1.415       .  A
C2691      C2692   1.407       .  A
C2691      C2698   1.520       .  S
C2692      C2693   1.406       .  A
C2692      H2697   1.083       .  S
C2694      C2695   1.521       .  S
C2695      F2699   1.385       .  S
C2695      F2700   1.383       .  S
C2695      F2701   1.384       .  S
C2698      F2702   1.382       .  S
C2698      F2703   1.383       .  S
C2698      F2704   1.385       .  S
C2705      C2710   1.406       .  A
C2705      H2712   1.082       .  S
C2707      C2708   1.407       .  A
C2707      C2714   1.522       .  S
C2708      H2713   1.083       .  S
C2710      C2711   1.518       .  S
C2711      F2715   1.384       .  S
C2711      F2716   1.383       .  S
C2711      F2717   1.383   1_455  S
C2714      F2718   1.385       .  S
C2714      F2719   1.383       .  S
C2714      F2720   1.383       .  S
C2721      C2722   1.405   1_655  A
C2721      C2726   1.410       .  A
C2721      H2728   1.083       .  S
C2723      C2724   1.409       .  A
C2723      C2730   1.521       .  S
C2724      H2729   1.083       .  S
C2725      C2726   1.423   1_455  A
C2726      C2727   1.521       .  S
C2727      F2731   1.385       .  S
C2727      F2732   1.384       .  S
C2727      F2733   1.383       .  S
C2730      F2734   1.383       .  S
C2730      F2735   1.384       .  S
C2730      F2736   1.385       .  S
C2737      C2742   1.408       .  A
C2737      H2744   1.083       .  S
C2738      C2739   1.419   1_455  A
C2739      C2740   1.409       .  A
C2739      C2746   1.520       .  S
C2740      C2741   1.406   1_655  A
C2740      H2745   1.083       .  S
C2742      C2743   1.520       .  S
C2743      F2747   1.385       .  S
C2743      F2748   1.383       .  S
C2743      F2749   1.383       .  S
C2746      F2750   1.384       .  S
C2746      F2751   1.382       .  S
C2746      F2752   1.385       .  S
C2753      C2754   1.400       .  A
C2753      C2758   1.408       .  A
C2753      H2760   1.084       .  S
C2754      C2755   1.414       .  A
C2755      C2756   1.405       .  A
C2755      C2762   1.520       .  S
C2756      C2757   1.407       .  A
C2756      H2761   1.083       .  S
C2757      C2758   1.426       .  A
C2758      C2759   1.521       .  S
C2759      F2763   1.383       .  S
C2759      F2764   1.383       .  S
C2759      F2765   1.385       .  S
C2762      F2766   1.383       .  S
C2762      F2767   1.382       .  S
C2762      F2768   1.384       .  S
C2769      C2770   1.403       .  A
C2769      C2774   1.405   1_554  A
C2769      H2776   1.084       .  S
C2770      C2771   1.420       .  A
C2771      C2772   1.406   1_554  A
C2771      C2778   1.520       .  S
C2772      C2773   1.401       .  A
C2772      H2777   1.083       .  S
C2773      C2774   1.418       .  A
C2774      C2775   1.520       .  S
C2775      F2779   1.385       .  S
C2775      F2780   1.384       .  S
C2775      F2781   1.382       .  S
C2778      F2782   1.383       .  S
C2778      F2783   1.384       .  S
C2778      F2784   1.385       .  S
C2785      C2786   1.405       .  A
C2785      C2790   1.407       .  A
C2785      H2792   1.083       .  S
C2787      C2788   1.407       .  A
C2787      C2794   1.521       .  S
C2788      H2793   1.083       .  S
C2789      C2790   1.418       .  A
C2790      C2791   1.520       .  S
C2791      F2795   1.385       .  S
C2791      F2796   1.382       .  S
C2791      F2797   1.383       .  S
C2794      F2798   1.384       .  S
C2794      F2799   1.383       .  S
C2794      F2800   1.385       .  S
C2801      C2802   1.402   1_545  A
C2802      C2803   1.418       .  A
C2803      C2810   1.517       .  S
C2806      C2807   1.523       .  S
C2807      F2811   1.385       .  S
C2807      F2812   1.384       .  S
C2810      F2815   1.382       .  S
C2810      F2816   1.384       .  S
C2817      C2818   1.405       .  A
C2817      C2822   1.408       .  A
C2817      H2824   1.083       .  S
C2818      C2819   1.422       .  A
C2819      C2820   1.410       .  A
C2819      C2826   1.521       .  S
C2820      C2821   1.406       .  A
C2820      H2825   1.083       .  S
C2821      C2822   1.423       .  A
C2822      C2823   1.521       .  S
C2823      F2827   1.385       .  S
C2823      F2828   1.383       .  S
C2823      F2829   1.383       .  S
C2826      F2830   1.384       .  S
C2826      F2831   1.383       .  S
C2826      F2832   1.385       .  S
C2833      C2834   1.405       .  A
C2833      C2838   1.408       .  A
C2833      H2840   1.083       .  S
C2834      C2835   1.419       .  A
C2835      C2836   1.407       .  A
C2835      C2842   1.520       .  S
C2836      C2837   1.404       .  A
C2836      H2841   1.083       .  S
C2837      C2838   1.419       .  A
C2838      C2839   1.520       .  S
C2839      F2843   1.385       .  S
C2839      F2844   1.382       .  S
C2839      F2845   1.384       .  S
C2842      F2846   1.384       .  S
C2842      F2847   1.382       .  S
C2842      F2848   1.385       .  S
C2849      C2854   1.410       .  A
C2849      H2856   1.083       .  S
C2850      C2851   1.414       .  A
C2851      C2852   1.405       .  A
C2851      C2858   1.519       .  S
C2852      C2853   1.407       .  A
C2852      H2857   1.082       .  S
C2854      C2855   1.521       .  S
C2855      F2859   1.385       .  S
C2855      F2860   1.383       .  S
C2855      F2861   1.384       .  S
C2858      F2862   1.381       .  S
C2858      F2863   1.381       .  S
C2858      F2864   1.385       .  S
C2865      C2866   1.406       .  A
C2865      C2870   1.410   1_554  A
C2865      H2872   1.082       .  S
C2867      C2868   1.403   1_554  A
C2867      C2874   1.521       .  S
C2868      H2873   1.083       .  S
C2869      C2870   1.419       .  A
C2870      C2871   1.520       .  S
C2871      F2875   1.385       .  S
C2871      F2876   1.384       .  S
C2874      F2879   1.384       .  S
C2874      F2880   1.385       .  S
C2881      C2886   1.406       .  A
C2881      H2888   1.083       .  S
C2883      C2884   1.408       .  A
C2883      C2890   1.520       .  S
C2884      H2889   1.083       .  S
C2886      C2887   1.520       .  S
C2887      F2891   1.385       .  S
C2887      F2892   1.384       .  S
C2887      F2893   1.382       .  S
C2890      F2894   1.384       .  S
C2890      F2895   1.382       .  S
C2890      F2896   1.385       .  S
C2897      C2902   1.405   1_556  A
C2897      H2904   1.082       .  S
C2898      C2899   1.421   1_545  A
C2899      C2900   1.408   1_556  A
C2899      C2906   1.521       .  S
C2900      H2905   1.082       .  S
C2902      C2903   1.523       .  S
C2903      F2907   1.385       .  S
C2903      F2909   1.384       .  S
C2906      F2910   1.383       .  S
C2906      F2912   1.385       .  S
C2913      C2918   1.409       .  A
C2913      H2920   1.083       .  S
C2914      C2915   1.419       .  A
C2915      C2916   1.408       .  A
C2915      C2922   1.519       .  S
C2916      C2917   1.405       .  A
C2916      H2921   1.083       .  S
C2918      C2919   1.520       .  S
C2919      F2923   1.385       .  S
C2919      F2924   1.383       .  S
C2919      F2925   1.383       .  S
C2922      F2926   1.382       .  S
C2922      F2927   1.382       .  S
C2922      F2928   1.385       .  S
C2929      C2930   1.407       .  A
C2929      C2934   1.409       .  A
C2929      H2936   1.083       .  S
C2931      C2932   1.407       .  A
C2931      C2938   1.522       .  S
C2932      H2937   1.082       .  S
C2933      C2934   1.421       .  A
C2934      C2935   1.521       .  S
C2935      F2939   1.385       .  S
C2935      F2940   1.384       .  S
C2935      F2941   1.382       .  S
C2938      F2942   1.383       .  S
C2938      F2943   1.381       .  S
C2938      F2944   1.385       .  S
