geometry optimzed in LAMMPS
_audit_creation_date              2020-11-30 
_audit_creation_method            'lammps2cif' 
_symmetry_space_group_name_H-M    'P1' 
_symmetry_Int_Tables_number       1 
_symmetry_cell_setting            triclinic 
loop_ 
_symmetry_equiv_pos_as_xyz 
  x,y,z 
_cell_length_a                    31.22332219 
_cell_length_b                    31.628582238772683 
_cell_length_c                    28.378314141791577 
_cell_angle_alpha                 90.08507113990092 
_cell_angle_beta                  90.86416655148645 
_cell_angle_gamma                 120.24942802149035 
loop_ 
_atom_site_label 
_atom_site_type_symbol 
_atom_site_fract_x 
_atom_site_fract_y 
_atom_site_fract_z 
_atom_site_charge 
C1          C  0.20447621  0.19982045  0.16171474     0.81300
N2          N  0.20615741  0.20747130  0.11451947    -0.77000
C3          C  0.24591553  0.24752766  0.09595424     0.83800
N4          N  0.28308917  0.28037351  0.12508021    -0.76900
C5          C  0.28066659  0.27285652  0.17237933     0.83900
N6          N  0.24161608  0.23260297  0.19009596    -0.78600
C7          C  0.19545275  0.21549332  0.47168132     0.81300
N8          N  0.21178987  0.22295872  0.01524159    -0.77000
C9          C  0.24901497  0.25525639  0.04463516     0.83800
N10         N  0.28967979  0.29453519  0.02636799    -0.76900
C11         C  0.27396641  0.28565902  0.46424293     0.83900
N12         N  0.23167549  0.24917770  0.44474574    -0.78600
C13         C  0.23194963  0.44195609  0.15838849     0.81300
N14         N  0.19505831  0.44661965  0.17785237    -0.77000
C15         C  0.16188518  0.45146859  0.15020887     0.83800
N16         N  0.16520193  0.45040855  0.10289865    -0.76900
C17         C  0.20173810  0.44554287  0.08286144     0.83900
N18         N  0.23562342  0.44175944  0.11063391    -0.78600
C19         C  0.24562619  0.45534613  0.46536783     0.81300
N20         N  0.21192020  0.46129739  0.44014700    -0.77000
C21         C  0.17479887  0.46336075  0.46183139     0.83800
N22         N  0.16863264  0.44981810  0.00644922    -0.76900
C23         C  0.20390065  0.44571803  0.03131503     0.83900
N24         N  0.24085108  0.44358339  0.00829368    -0.78600
C25         C  0.50551901  0.25566791  0.16452688     0.81300
N26         N  0.49846929  0.21613331  0.18880908    -0.77000
C27         C  0.49634545  0.17710178  0.16695804     0.83800
N28         N  0.49986815  0.17680774  0.11879802    -0.76900
C29         C  0.50640925  0.21669761  0.09367802     0.83900
N30         N  0.50984981  0.25604807  0.11713577    -0.78600
C31         C  0.43902609  0.21940977  0.47030807     0.81300
N32         N  0.50839059  0.25820381  0.02064065    -0.77000
C33         C  0.50603444  0.21807159  0.04116642     0.83800
N34         N  0.50052908  0.18011145  0.01316073    -0.76900
C35         C  0.45421987  0.15421137  0.46164242     0.83900
N36         N  0.44392789  0.18743283  0.44289502    -0.78600
O37         O  0.37915338  0.01401958  0.24499368    -0.87100
C38         C  0.12777783  0.10726129  0.39112702     1.13000
O39         O  0.43261356  0.47391629  0.31350827    -1.34900
O40         O  0.10093957  0.11477455  0.26427602    -0.88600
O41         O  0.33383820  0.43278777  0.25663141    -0.89200
O42         O  0.43444237  0.41850009  0.21885730    -0.78100
O43         O  0.48733530  0.07094031  0.26619901    -1.00100
C44         C  0.08617551  0.47419029  0.24147905     1.23000
O45         O  0.47986772  0.41956732  0.32103035    -1.35000
Mn46       Mn  0.48150869  0.47403499  0.36848351     1.82100
O47         O  0.05043898  0.47514389  0.22162485    -0.77100
O48         O  0.14023793  0.07259753  0.27471777    -0.86500
C49         C  0.06538425  0.47176884  0.41260263     1.14100
C50         C  0.13458134  0.10507041  0.25412993     1.08800
O51         O  0.42901403  0.42741608  0.41604083    -0.78100
O52         O  0.03680286  0.02072638  0.31860731    -1.31800
O53         O  0.38106844  0.37882696  0.36262452    -0.97300
C54         C  0.47624532  0.32427096  0.25742123     1.07500
Mn55       Mn  0.10337481  0.01901216  0.32523771     1.48600
O56         O  0.43570464  0.31731438  0.27420866    -0.86500
Mn57       Mn  0.36090136  0.40958506  0.31328780     1.49600
O58         O  0.36734117  0.00907672  0.34965769    -0.90400
C59         C  0.49281104  0.06457525  0.22447088     1.20700
C60         C  0.34057083  0.48062260  0.37270973     1.12800
Mn61       Mn  0.48504601  0.47015682  0.26667559     1.81000
O62         O  0.07697849  0.47380664  0.37098940    -0.95500
Mn63       Mn  0.42747502  0.03730091  0.30437705     1.49300
C64         C  0.34470507  0.47298356  0.23676336     1.09300
Mn65       Mn  0.05088483  0.41805211  0.32525629     1.49900
C66         C  0.47422478  0.32885326  0.39383809     1.12200
O67         O  0.38421005  0.37512999  0.27242793    -1.01300
O68         O  0.13259085  0.07123169  0.37914072    -0.91000
C69         C  0.39443690  0.38186220  0.23047110     1.23500
O70         O  0.08785805  0.47473334  0.28416833    -1.01700
O71         O  0.09888551  0.11874808  0.37015965    -0.89100
O72         O  0.01943763  0.36442961  0.37652683    -0.88700
O73         O  0.33286024  0.43830506  0.36208268    -0.88700
Mn74       Mn  0.04642756  0.09225392  0.31548227     1.47900
O75         O  0.02540942  0.47023336  0.42073746    -0.77200
C76         C  0.38959737  0.38961223  0.40469714     1.16500
O77         O  0.49685730  0.02840748  0.21377944    -0.75900
O78         O  0.47149609  0.01719791  0.40979831    -0.75500
Mn79       Mn  0.41183157  0.35142756  0.32188860     1.51100
O80         O  0.03305682  0.36474631  0.27388912    -0.87900
O81         O  0.47734681  0.06805603  0.35686076    -0.95400
O82         O  0.43320758  0.32365594  0.37892527    -0.90400
C83         C  0.47272648  0.05603994  0.39877581     1.14300
C84         C  0.46791130  0.08570998  0.43682100    -0.15300
C85         C  0.46111215  0.12318268  0.42690935    -0.30500
H86         H  0.99516211  0.09111978  0.47563039     0.13700
H87         H  0.45940721  0.13164445  0.39003671     0.14300
C88         C  0.43389602  0.25820748  0.44747622    -0.15300
C89         C  0.47490243  0.29758831  0.43194214    -0.30500
H90         H  0.39743497  0.24982511  0.43479249     0.12100
H91         H  0.93860704  0.25428456  0.41233890     0.14300
C92         C  0.49621370  0.09943857  0.18743795    -0.15300
C93         C  0.48914638  0.13669316  0.19830320    -0.30500
H94         H  0.50575859  0.09520909  0.15178412     0.13700
H95         H  0.00070348  0.14745328  0.23537610     0.14300
C96         C  0.50666218  0.29677360  0.19021455    -0.15300
C97         C  0.47340008  0.28731627  0.22400251    -0.30500
H98         H  0.94415461  0.28326636  0.17054428     0.13700
H99         H  0.44307206  0.25000531  0.22839175     0.14300
C100        C  0.30723676  0.48493867  0.40514119    -0.15300
C101        C  0.28551699  0.45390316  0.44056062    -0.30500
H102        H  0.28922306  0.99531338  0.39374780     0.13700
H103        H  0.29597694  0.42702144  0.45010877     0.14300
C104        C  0.13911852  0.46894255  0.43294639    -0.15300
C105        C  0.09839035  0.46888731  0.44846418    -0.30500
H106        H  0.14711572  0.47221893  0.39548403     0.13700
H107        H  0.09083194  0.95833151  0.48100556     0.14300
C108        C  0.26665311  0.43627231  0.18986491    -0.15300
C109        C  0.31373413  0.47262688  0.19646324    -0.30500
H110        H  0.25094072  0.40553900  0.21383513     0.13700
H111        H  0.32767908  0.50542950  0.17527477     0.14300
C112        C  0.12485494  0.46996701  0.21667516    -0.15300
C113        C  0.12282015  0.45866935  0.17097048    -0.30500
H114        H  0.15564997  0.47388384  0.23841034     0.13700
H115        H  0.09249998  0.45491311  0.14863428     0.14300
C116        C  0.35497894  0.35886956  0.44194398    -0.15300
C117        C  0.31149467  0.31922531  0.43066894    -0.30500
H118        H  0.36525633  0.36907218  0.47869170     0.13700
H119        H  0.30199598  0.31032373  0.39355067     0.14300
C120        C  0.15323466  0.17423983  0.44836234    -0.15300
C121        C  0.15960021  0.13893158  0.42964435    -0.30500
H122        H  0.12136948  0.17775317  0.43874237     0.13700
H123        H  0.19218473  0.13664316  0.43947911     0.14300
C124        C  0.31816879  0.30762851  0.20609890    -0.15300
C125        C  0.35992085  0.34813680  0.19395060    -0.30500
H126        H  0.31046289  0.29925255  0.24322789     0.13700
H127        H  0.36864061  0.35683766  0.15705547     0.14300
C128        C  0.17172879  0.13546185  0.21953459    -0.15300
C129        C  0.16250186  0.15756383  0.18369737    -0.30500
H130        H  0.20942584  0.14320528  0.22615690     0.13700
H131        H  0.12486227  0.14816740  0.17422392     0.14300
C132        C  0.21416387  0.21077908  0.66291003     0.81300
N133        N  0.21000786  0.21597028  0.61586710    -0.77000
C134        C  0.24853980  0.25215892  0.59161620     0.83800
N135        N  0.29108650  0.28446068  0.61525403    -0.76900
C136        C  0.29501453  0.27945086  0.66259829     0.83900
N137        N  0.25687133  0.24247506  0.68570869    -0.78600
C138        C  0.21468585  0.23068558  0.96795746     0.81300
N139        N  0.20137877  0.21753467  0.51899622    -0.77000
C140        C  0.24350791  0.25377872  0.53978889     0.83800
N141        N  0.28044076  0.28814418  0.51228264    -0.76900
C142        C  0.29314850  0.30192882  0.97914600     0.83900
N143        N  0.25515189  0.27019509  0.95038462    -0.78600
C144        C  0.23177324  0.45014160  0.66103202     0.81300
N145        N  0.19227620  0.45045454  0.67989675    -0.77000
C146        C  0.15813590  0.45308731  0.65166708     0.83800
N147        N  0.16297340  0.45395109  0.60463897    -0.76900
C148        C  0.20192609  0.45305831  0.58547528     0.83900
N149        N  0.23686093  0.45170915  0.61355101    -0.78600
C150        C  0.24275454  0.44663991  0.96042704     0.81300
N151        N  0.20745569  0.45113739  0.93626688    -0.77000
C152        C  0.17018155  0.45227228  0.95899179     0.83800
N153        N  0.17167224  0.46018254  0.50909873    -0.76900
C154        C  0.20559505  0.45470428  0.53466841     0.83900
N155        N  0.24247748  0.45178081  0.51288957    -0.78600
C156        C  0.47125835  0.23705361  0.65785537     0.81300
N157        N  0.48065900  0.20706454  0.68417521    -0.77000
C158        C  0.48066597  0.16787167  0.66482900     0.83800
N159        N  0.47222238  0.15903731  0.61708331    -0.76900
C160        C  0.46327598  0.18996859  0.59005314     0.83900
N161        N  0.46200172  0.22799581  0.61125278    -0.78600
C162        C  0.50416638  0.26037955  0.97328790     0.81300
N163        N  0.44516185  0.21883559  0.51745660    -0.77000
C164        C  0.45512338  0.18562491  0.53787439     0.83800
N165        N  0.46007861  0.15298039  0.50971925    -0.76900
C166        C  0.49741834  0.18320776  0.96508134     0.83900
N167        N  0.49879064  0.22297153  0.94612708    -0.78600
O168        O  0.37693494  0.01837034  0.76184097    -0.87100
C169        C  0.12467547  0.11589695  0.89695179     1.13000
O170        O  0.43648617  0.47737180  0.80566901    -1.34900
O171        O  0.10334943  0.12477640  0.76806291    -0.88600
O172        O  0.33969455  0.43816540  0.74636497    -0.89200
O173        O  0.44718384  0.43103715  0.70691893    -0.78100
O174        O  0.48711922  0.07335264  0.77055973    -1.00100
C175        C  0.07773603  0.46863665  0.74097884     1.23000
O176        O  0.48712923  0.42577365  0.81252434    -1.35000
Mn177      Mn  0.48129316  0.47424501  0.86298007     1.82100
O178        O  0.04227508  0.47001378  0.72125313    -0.77100
O179        O  0.14758242  0.08802946  0.78251974    -0.86500
C180        C  0.05873149  0.46032402  0.91163884     1.14100
C181        C  0.14068680  0.11955465  0.76114981     1.08800
O182        O  0.42402869  0.42027449  0.90532121    -0.78100
O183        O  0.04027540  0.02598054  0.81896211    -1.31800
O184        O  0.38751593  0.37925304  0.84418491    -0.97300
C185        C  0.49581387  0.33793333  0.74631333     1.07500
Mn186      Mn  0.10944505  0.03048559  0.83006424     1.48600
O187        O  0.45266021  0.33150524  0.75289952    -0.86500
Mn188      Mn  0.36660329  0.41215079  0.79966691     1.49600
O189        O  0.37729627  0.02022714  0.86569675    -0.90400
C190        C  0.48760629  0.06280890  0.72883084     1.20700
C191        C  0.33911547  0.47497453  0.86503434     1.12800
Mn192      Mn  0.49350650  0.47922521  0.76108788     1.81000
O193        O  0.06951813  0.46166887  0.86983270    -0.95500
Mn194      Mn  0.43164794  0.04372670  0.81492451     1.49300
C195        C  0.34913082  0.47922361  0.72990253     1.09300
Mn196      Mn  0.03975304  0.40796570  0.82087704     1.49900
C197        C  0.47827251  0.33098008  0.88030103     1.12200
O198        O  0.39574211  0.38459089  0.75706937    -1.01300
O199        O  0.13044713  0.08001693  0.88666021    -0.91000
C200        C  0.40692579  0.39331988  0.71583145     1.23500
O201        O  0.07813359  0.46671485  0.78334715    -1.01700
O202        O  0.09589581  0.12610795  0.87371090    -0.89100
O203        O  0.00688701  0.35101054  0.86932081    -0.88700
O204        O  0.33352819  0.43407271  0.85129466    -0.88700
Mn205      Mn  0.04496118  0.09580434  0.81667125     1.47900
O206        O  0.02078425  0.46273433  0.92057817    -0.77200
C207        C  0.38845206  0.38274429  0.88674713     1.16500
O208        O  0.48995579  0.02531998  0.71950547    -0.75900
O209        O  0.48299039  0.02894128  0.91668083    -0.75500
Mn210      Mn  0.42191692  0.35698012  0.80316486     1.51100
O211        O  0.01871455  0.35837125  0.76417337    -0.87900
O212        O  0.48655438  0.07691404  0.86197582    -0.95400
O213        O  0.43989832  0.32324694  0.85700916    -0.90400
C214        C  0.48597717  0.06821874  0.90443452     1.14300
C215        C  0.48905274  0.10282264  0.94166551    -0.15300
C216        C  0.49294058  0.14569070  0.93086847    -0.30500
H217        H  0.97772475  0.07964492  0.97348107     0.13700
H218        H  0.49300572  0.15450713  0.89383449     0.14300
C219        C  0.50495148  0.30240336  0.95024354    -0.15300
C220        C  0.47230886  0.29402261  0.91499548    -0.30500
H221        H  0.53423758  0.33930351  0.95924036     0.12100
H222        H  0.92443384  0.24323118  0.90516532     0.14300
C223        C  0.48465736  0.09295745  0.68977590    -0.15300
C224        C  0.48776843  0.13606796  0.69884809    -0.30500
H225        H  0.47885012  0.07913342  0.65379783     0.13700
H226        H  0.98714661  0.14287385  0.73428516     0.14300
C227        C  0.46857769  0.27751745  0.68064296    -0.15300
C228        C  0.50197144  0.30491345  0.71409542    -0.30500
H229        H  0.05198032  0.33493809  0.68774176     0.13700
H230        H  0.53398424  0.30053735  0.72031254     0.14300
C231        C  0.30266732  0.47572625  0.89694611    -0.15300
C232        C  0.28298105  0.44602005  0.93403723    -0.30500
H233        H  0.30569194  0.01350407  0.91534296     0.13700
H234        H  0.29639145  0.42173299  0.94481502     0.14300
C235        C  0.13273945  0.45644317  0.93087095    -0.15300
C236        C  0.09220258  0.45675382  0.94700084    -0.30500
H237        H  0.13967801  0.45908134  0.89321610     0.13700
H238        H  0.08730089  0.95929081  0.98298696     0.14300
C239        C  0.26757151  0.44672922  0.69253190    -0.15300
C240        C  0.31637893  0.47943834  0.69203556    -0.30500
H241        H  0.25261592  0.42027165  0.72080326     0.13700
H242        H  0.33081369  0.50951817  0.66728118     0.14300
C243        C  0.11803428  0.46768016  0.71678185    -0.15300
C244        C  0.11683080  0.45661248  0.67141155    -0.30500
H245        H  0.14946201  0.47375308  0.73885039     0.13700
H246        H  0.08587938  0.45068415  0.64875074     0.14300
C247        C  0.34623977  0.34398856  0.91234760    -0.15300
C248        C  0.33862775  0.34312673  0.95884538    -0.30500
H249        H  0.31882591  0.31415974  0.89031628     0.13700
H250        H  0.36592007  0.37189398  0.98182062     0.14300
C251        C  0.17513811  0.19685438  0.93473445    -0.15300
C252        C  0.15463216  0.14798486  0.93688903    -0.30500
H253        H  0.16816771  0.21274241  0.90369572     0.13700
H254        H  0.16593100  0.13223369  0.96505406     0.14300
C255        C  0.33811848  0.31406531  0.69148793    -0.15300
C256        C  0.37342446  0.35914784  0.67873650    -0.30500
H257        H  0.33775390  0.30295301  0.72781850     0.13700
H258        H  0.37564154  0.37147908  0.64268896     0.14300
C259        C  0.18014700  0.15340196  0.72915856    -0.15300
C260        C  0.17204799  0.17262738  0.68997988    -0.30500
H261        H  0.21786678  0.16281937  0.73840238     0.13700
H262        H  0.13437665  0.16058149  0.67801094     0.14300
C263        C  0.21275145  0.70845100  0.15959215     0.81300
N264        N  0.20945560  0.71383232  0.11247985    -0.77000
C265        C  0.24810331  0.75079408  0.08900979     0.83800
N266        N  0.28976034  0.78362456  0.11347031    -0.76900
C267        C  0.29271679  0.77835397  0.16087792     0.83900
N268        N  0.25454032  0.74072424  0.18321823    -0.78600
C269        C  0.21283570  0.72866498  0.47093325     0.81300
N270        N  0.20098146  0.71876494  0.01605098    -0.77000
C271        C  0.24351858  0.75369725  0.03733034     0.83800
N272        N  0.28061551  0.78873324  0.01047100    -0.76900
C273        C  0.29241756  0.79868287  0.48011877     0.83900
N274        N  0.25342216  0.76712760  0.45231296    -0.78600
C275        C  0.22409697  0.94049865  0.16247708     0.81300
N276        N  0.18375030  0.93978504  0.18059708    -0.77000
C277        C  0.14835127  0.93933763  0.15166618     0.83800
N278        N  0.15283643  0.93827446  0.10464711    -0.76900
C279        C  0.19272565  0.93861978  0.08614253     0.83900
N280        N  0.22881533  0.94025008  0.11496789    -0.78600
C281        C  0.23827494  0.93457441  0.46002536     0.81300
N282        N  0.20324344  0.93856979  0.43505156    -0.77000
C283        C  0.16671853  0.94154847  0.45687819     0.83800
N284        N  0.16510511  0.94796300  0.00866036    -0.76900
C285        C  0.19743282  0.94069592  0.03519291     0.83900
N286        N  0.23506635  0.93824587  0.01445234    -0.78600
C287        C  0.47466904  0.73549859  0.15883771     0.81300
N288        N  0.47749456  0.70137869  0.18501349    -0.77000
C289        C  0.48306858  0.66565609  0.16464856     0.83800
N290        N  0.48708612  0.66469034  0.11655799    -0.76900
C291        C  0.48483206  0.69978865  0.08995791     0.83900
N292        N  0.47815322  0.73444394  0.11160945    -0.78600
C293        C  0.49581568  0.75410857  0.47206413     0.81300
N294        N  0.50180851  0.74832204  0.01947051    -0.77000
C295        C  0.49284493  0.70509925  0.03835283     0.83800
N296        N  0.48982713  0.66894551  0.00928989    -0.76900
C297        C  0.48780186  0.67645097  0.46346159     0.83900
N298        N  0.49271979  0.71779537  0.44472824    -0.78600
O299        O  0.38020037  0.51426066  0.25075072    -0.87100
C300        C  0.12577934  0.61688807  0.39498024     1.13000
O301        O  0.43304259  0.97277859  0.30601198    -1.34900
O302        O  0.10432808  0.62491775  0.26698037    -0.88600
O303        O  0.33510753  0.93229076  0.24732478    -0.89200
O304        O  0.44587911  0.92840954  0.20701477    -0.78100
O305        O  0.48807168  0.56844946  0.26636085    -1.00100
C306        C  0.07317287  0.96521899  0.23861448     1.23000
O307        O  0.48472101  0.92231743  0.31311156    -1.35000
Mn308      Mn  0.47786612  0.97001129  0.36373142     1.82100
O309        O  0.03621171  0.96537396  0.22101195    -0.77100
O310        O  0.14598227  0.58510407  0.27770408    -0.86500
C311        C  0.06414586  0.96290928  0.40893126     1.14100
C312        C  0.14000934  0.61774486  0.25779314     1.08800
O313        O  0.42109719  0.91521790  0.40510276    -0.78100
O314        O  0.03958253  0.52605521  0.31836753    -1.31800
O315        O  0.38502122  0.87402076  0.34371811    -0.97300
C316        C  0.49521637  0.83553346  0.24672707     1.07500
Mn317      Mn  0.10904038  0.53076597  0.32776826     1.48600
O318        O  0.45201423  0.82962160  0.25132417    -0.86500
Mn319      Mn  0.36368132  0.90694724  0.29977057     1.49600
O320        O  0.37406918  0.51985863  0.35485405    -0.90400
C321        C  0.48929991  0.55868606  0.22470720     1.20700
C322        C  0.33520789  0.96775243  0.36562098     1.12800
Mn323      Mn  0.49117228  0.97601153  0.26205009     1.81000
O324        O  0.07201164  0.96310168  0.36721308    -0.95500
Mn325      Mn  0.43100983  0.54060452  0.30771909     1.49300
C326        C  0.34401985  0.97288417  0.23012260     1.09300
Mn327      Mn  0.04060714  0.90919876  0.32189075     1.49900
C328        C  0.47478873  0.82691259  0.37945509     1.12200
O329        O  0.39395540  0.88146039  0.25648846    -1.01300
O330        O  0.13298362  0.58249319  0.38244169    -0.91000
C331        C  0.40527891  0.89087271  0.21538625     1.23500
O332        O  0.07630108  0.96474275  0.28089689    -1.01700
O333        O  0.09568675  0.62650342  0.37331548    -0.89100
O334        O  0.01141309  0.85536146  0.37302738    -0.88700
O335        O  0.33062430  0.92726802  0.35216620    -0.88700
Mn336      Mn  0.04558563  0.59643935  0.31532319     1.47900
O337        O  0.02883703  0.96853071  0.42026160    -0.77200
C338        C  0.38617603  0.87734694  0.38637378     1.16500
O339        O  0.48907521  0.51987842  0.21519169    -0.75900
O340        O  0.48180415  0.52631533  0.41240099    -0.75500
Mn341      Mn  0.42009436  0.85341283  0.30188929     1.51100
O342        O  0.01451526  0.85632768  0.26723403    -0.87900
O343        O  0.48387176  0.57358054  0.35746795    -0.95400
O344        O  0.43741295  0.81881893  0.35450213    -0.90400
C345        C  0.48225045  0.56438881  0.40004441     1.14300
C346        C  0.48236405  0.59735243  0.43791241    -0.15300
C347        C  0.48537251  0.64011492  0.42842677    -0.30500
H348        H  0.97298770  0.58115550  0.47038105     0.13700
H349        H  0.48712552  0.65027926  0.39161674     0.14300
C350        C  0.49894030  0.79696541  0.44932138    -0.15300
C351        C  0.46739936  0.78943496  0.41357596    -0.30500
H352        H  0.52866275  0.83343745  0.45901532     0.12100
H353        H  0.93082765  0.76145504  0.43529264     0.14300
C354        C  0.48948242  0.59125827  0.18658562    -0.15300
C355        C  0.48501112  0.63020101  0.19752996    -0.30500
H356        H  0.49216699  0.58275857  0.15004224     0.13700
H357        H  0.98530200  0.64052259  0.23372254     0.14300
C358        C  0.46917359  0.77407192  0.18206071    -0.15300
C359        C  0.50248444  0.80287539  0.21494118    -0.30500
H360        H  0.02921549  0.82977664  0.17761072     0.13700
H361        H  0.53547134  0.80008128  0.22092558     0.14300
C362        C  0.29965454  0.96758722  0.39894115    -0.15300
C363        C  0.27934054  0.93555470  0.43423051    -0.30500
H364        H  0.29915266  0.51415498  0.39880583     0.13700
H365        H  0.29195329  0.91015450  0.44308185     0.14300
C366        C  0.13095388  0.94711208  0.42747448    -0.15300
C367        C  0.09584553  0.95599716  0.44349814    -0.30500
H368        H  0.13503485  0.94488247  0.38970654     0.13700
H369        H  0.08935082  0.46541755  0.48562745     0.14300
C370        C  0.26109053  0.93990341  0.19493117    -0.15300
C371        C  0.31011859  0.97188967  0.19255036    -0.30500
H372        H  0.24691239  0.91557617  0.22491028     0.13700
H373        H  0.32422110  0.00014239  0.16589373     0.14300
C374        C  0.11288338  0.96511811  0.21238540    -0.15300
C375        C  0.10694503  0.94326059  0.17076404    -0.30500
H376        H  0.14810112  0.97943971  0.23136012     0.13700
H377        H  0.07231742  0.92886447  0.15084941     0.14300
C378        C  0.34471023  0.83837843  0.41235668    -0.15300
C379        C  0.33755092  0.83896562  0.45878219    -0.30500
H380        H  0.31745319  0.80774795  0.39099793     0.13700
H381        H  0.36484128  0.86862339  0.48098568     0.14300
C382        C  0.17191187  0.69556491  0.43844215    -0.15300
C383        C  0.15537358  0.64734064  0.43601873    -0.30500
H384        H  0.16187678  0.71238072  0.41029305     0.13700
H385        H  0.16991343  0.63149522  0.46103994     0.14300
C386        C  0.33468041  0.81316545  0.19068071    -0.15300
C387        C  0.37173232  0.85737929  0.17795427    -0.30500
H388        H  0.33248515  0.80239852  0.22736486     0.13700
H389        H  0.37578019  0.86928220  0.14159786     0.14300
C390        C  0.17900367  0.65082097  0.22522169    -0.15300
C391        C  0.17062489  0.66978722  0.18607806    -0.30500
H392        H  0.21677745  0.66024306  0.23426634     0.13700
H393        H  0.13292428  0.65771982  0.17420650     0.14300
C394        C  0.20809786  0.70259533  0.66595629     0.81300
N395        N  0.20855062  0.70874265  0.61856347    -0.77000
C396        C  0.24778194  0.74803516  0.59850001     0.83800
N397        N  0.28577494  0.78189098  0.62639708    -0.76900
C398        C  0.28473304  0.77599235  0.67394200     0.83900
N399        N  0.24610948  0.73623709  0.69309814    -0.78600
C400        C  0.19434926  0.71927599  0.96900981     0.81300
N401        N  0.21092513  0.72176261  0.51843086    -0.77000
C402        C  0.24937858  0.75409748  0.54687798     0.83800
N403        N  0.28997724  0.79234184  0.52743902    -0.76900
C404        C  0.27369055  0.78852253  0.96260683     0.83900
N405        N  0.23048955  0.75392241  0.94270149    -0.78600
C406        C  0.23612591  0.94473513  0.65637608     0.81300
N407        N  0.20296781  0.95507081  0.67633431    -0.77000
C408        C  0.16789089  0.95759632  0.64921945     0.83800
N409        N  0.16687157  0.95043955  0.60208279    -0.76900
C410        C  0.20018530  0.94078286  0.58175851     0.83900
N411        N  0.23454396  0.93746923  0.60902969    -0.78600
C412        C  0.24044191  0.94367927  0.96719420     0.81300
N413        N  0.20845363  0.95146098  0.94107708    -0.77000
C414        C  0.17058538  0.95325504  0.96151057     0.83800
N415        N  0.16540570  0.94120442  0.50453415    -0.76900
C416        C  0.20022372  0.93702180  0.53022861     0.83900
N417        N  0.23678206  0.93356148  0.50790935    -0.78600
C418        C  0.47429543  0.74171278  0.66156090     0.81300
N419        N  0.47898963  0.70836887  0.68729947    -0.77000
C420        C  0.48492202  0.67309107  0.66663907     0.83800
N421        N  0.48695277  0.67120646  0.61851888    -0.76900
C422        C  0.48269759  0.70507479  0.59193832     0.83900
N423        N  0.47599437  0.73984307  0.61391877    -0.78600
C424        C  0.50839567  0.75625807  0.97276607     0.81300
N425        N  0.49337693  0.74916484  0.51927885    -0.77000
C426        C  0.48758897  0.70774635  0.53970253     0.83800
N427        N  0.48502181  0.67082838  0.51166923    -0.76900
C428        C  0.49608898  0.67724621  0.96169352     0.83900
N429        N  0.50523119  0.72071101  0.94426113    -0.78600
O430        O  0.38376830  0.52002890  0.74582667    -0.87100
C431        C  0.12102009  0.60650150  0.89580168     1.13000
O432        O  0.43465763  0.97752014  0.81678420    -1.34900
O433        O  0.10058276  0.61707161  0.76806697    -0.88600
O434        O  0.33487019  0.93642191  0.76039831    -0.89200
O435        O  0.43849308  0.92498401  0.71986922    -0.78100
O436        O  0.49179415  0.57482336  0.76537318    -1.00100
C437        C  0.09064266  0.97873657  0.74109492     1.23000
O438        O  0.48427905  0.92524867  0.82304651    -1.35000
Mn439      Mn  0.48376121  0.97783185  0.87159935     1.82100
O440        O  0.05455766  0.97927847  0.72135027    -0.77100
O441        O  0.14088831  0.57614532  0.78001725    -0.86500
C442        C  0.06577226  0.96932441  0.91034069     1.14100
C443        C  0.13560442  0.60887042  0.75955546     1.08800
O444        O  0.43116157  0.92829305  0.91736696    -0.78100
O445        O  0.03459907  0.52011665  0.81932189    -1.31800
O446        O  0.38475219  0.88010867  0.86248628    -0.97300
C447        C  0.48734251  0.83309482  0.75854932     1.07500
Mn448      Mn  0.10226895  0.52094591  0.82857398     1.48600
O449        O  0.44463059  0.82690908  0.76766573    -0.86500
Mn450      Mn  0.36362774  0.91217424  0.81511119     1.49600
O451        O  0.37292488  0.51612646  0.85018899    -0.90400
C452        C  0.49545733  0.56780117  0.72347440     1.20700
C453        C  0.34321125  0.97959822  0.88093830     1.12800
Mn454      Mn  0.48821385  0.97610183  0.76976408     1.81000
O455        O  0.07697149  0.97293074  0.86933467    -0.95500
Mn456      Mn  0.43268273  0.54284795  0.80437011     1.49300
C457        C  0.34233988  0.97766256  0.74581968     1.09300
Mn458      Mn  0.05417729  0.92029417  0.82367253     1.49900
C459        C  0.47866453  0.83362969  0.89384923     1.12200
O460        O  0.38847786  0.88063294  0.77244169    -1.01300
O461        O  0.12752523  0.57141829  0.88419091    -0.91000
C462        C  0.39826779  0.88809997  0.73063817     1.23500
O463        O  0.09149122  0.97761778  0.78379260    -1.01700
O464        O  0.09243950  0.61733108  0.87339209    -0.89100
O465        O  0.02202969  0.86472412  0.87353983    -0.88700
O466        O  0.33465653  0.93811719  0.86590395    -0.88700
Mn467      Mn  0.04303372  0.59137159  0.81658052     1.47900
O468        O  0.02595127  0.96776118  0.91922461    -0.77200
C469        C  0.39270425  0.88986925  0.90490348     1.16500
O470        O  0.49875457  0.53128684  0.71238488    -0.75900
O471        O  0.47616969  0.52230868  0.90893653    -0.75500
Mn472      Mn  0.41744375  0.85608584  0.81918302     1.51100
O473        O  0.03762304  0.86829590  0.77069699    -0.87900
O474        O  0.48393004  0.57349116  0.85566815    -0.95400
O475        O  0.43879893  0.82580047  0.87351900    -0.90400
C476        C  0.48020335  0.56233918  0.89771108     1.14300
C477        C  0.48128115  0.59522896  0.93563308    -0.15300
C478        C  0.49247026  0.64103480  0.92647143    -0.30500
H479        H  0.97983787  0.58245815  0.97423074     0.13700
H480        H  0.49960417  0.65342131  0.89019983     0.14300
C481        C  0.51402042  0.80082805  0.95158327    -0.15300
C482        C  0.47441749  0.79894064  0.93045163    -0.30500
H483        H  0.55120973  0.83113098  0.94570835     0.12100
H484        H  0.94133750  0.75320559  0.90611281     0.14300
C485        C  0.49472221  0.60086223  0.68670042    -0.15300
C486        C  0.48871073  0.63847767  0.69896256    -0.30500
H487        H  0.49778924  0.59360442  0.64986557     0.13700
H488        H  0.99425601  0.64528652  0.73466366     0.14300
C489        C  0.46839249  0.77993869  0.68620537    -0.15300
C490        C  0.49233294  0.79825317  0.72761035    -0.30500
H491        H  0.94380102  0.78252186  0.67092202     0.13700
H492        H  0.51880651  0.78770927  0.73978908     0.14300
C493        C  0.30989148  0.98137210  0.91543877    -0.15300
C494        C  0.28192414  0.94401987  0.94378191    -0.30500
H495        H  0.29184193  0.50283005  0.88963530     0.13700
H496        H  0.28723926  0.91272943  0.94699793     0.14300
C497        C  0.13713370  0.96162641  0.93141575    -0.15300
C498        C  0.09726130  0.96355596  0.94608697    -0.30500
H499        H  0.14596586  0.96564413  0.89418028     0.13700
H500        H  0.08425298  0.45428523  0.98438246     0.14300
C501        C  0.27332765  0.94092011  0.68605295    -0.15300
C502        C  0.30769684  0.97974612  0.71087178    -0.30500
H503        H  0.27261932  0.90625106  0.68719410     0.13700
H504        H  0.30919654  0.01465406  0.70680033     0.14300
C505        C  0.13073301  0.97659617  0.71613561    -0.15300
C506        C  0.12965085  0.96631892  0.67020387    -0.30500
H507        H  0.16124541  0.98009919  0.73804020     0.13700
H508        H  0.09921136  0.96233910  0.64791162     0.14300
C509        C  0.35751162  0.85821885  0.94139561    -0.15300
C510        C  0.31170095  0.82256017  0.92957615    -0.30500
H511        H  0.36900440  0.86517761  0.97824720     0.13700
H512        H  0.30088311  0.81718427  0.89247798     0.14300
C513        C  0.15116974  0.67990278  0.94497022    -0.15300
C514        C  0.15037318  0.63796214  0.93563335    -0.30500
H515        H  0.12727426  0.68967007  0.92542437     0.13700
H516        H  0.17694841  0.63032229  0.95313463     0.14300
C517        C  0.32311469  0.81204693  0.70660347    -0.15300
C518        C  0.36363188  0.85389135  0.69402404    -0.30500
H519        H  0.31679302  0.80350218  0.74383982     0.13700
H520        H  0.37121794  0.86308477  0.65707712     0.14300
C521        C  0.17449683  0.64105727  0.72706275    -0.15300
C522        C  0.16600943  0.66132507  0.68917378    -0.30500
H523        H  0.21225545  0.65036088  0.73607730     0.13700
H524        H  0.12841585  0.64979559  0.67733289     0.14300
C525        C  0.70552344  0.21236765  0.16664320     0.81300
N526        N  0.70265189  0.21823509  0.11951387    -0.77000
C527        C  0.74228847  0.25479184  0.09721471     0.83800
N528        N  0.78407440  0.28593889  0.12224458    -0.76900
C529        C  0.78683249  0.28020834  0.16918716     0.83900
N530        N  0.74764251  0.24330665  0.19104995    -0.78600
C531        C  0.70834980  0.23359731  0.46459860     0.81300
N532        N  0.70340647  0.22814803  0.01813822    -0.77000
C533        C  0.74139502  0.26128665  0.04629050     0.83800
N534        N  0.78096948  0.30034307  0.02694526    -0.76900
C535        C  0.78597500  0.30588034  0.47563464     0.83900
N536        N  0.74886098  0.27303999  0.44670524    -0.78600
C537        C  0.73351146  0.45355941  0.16007926     0.81300
N538        N  0.69379531  0.45399926  0.17853700    -0.77000
C539        C  0.65988581  0.45691310  0.15007453     0.83800
N540        N  0.66535894  0.45799004  0.10298609    -0.76900
C541        C  0.70435404  0.45674990  0.08400007     0.83900
N542        N  0.73889856  0.45502820  0.11251552    -0.78600
C543        C  0.74740815  0.45232328  0.46036427     0.81300
N544        N  0.71216677  0.45600392  0.43526322    -0.77000
C545        C  0.67561491  0.45892268  0.45726462     0.83800
N546        N  0.67379055  0.46292538  0.00718072    -0.76900
C547        C  0.70784277  0.45757107  0.03274740     0.83900
N548        N  0.74409162  0.45353367  0.01057250    -0.78600
C549        C  0.97880303  0.23755712  0.15957090     0.81300
N550        N  0.98609616  0.20603619  0.18570869    -0.77000
C551        C  0.99100945  0.16997332  0.16532022     0.83800
N552        N  0.98991052  0.16604770  0.11699805    -0.76900
C553        C  0.98353020  0.19875051  0.09029130     0.83900
N554        N  0.97732091  0.23362056  0.11217208    -0.78600
C555        C  0.00503401  0.25633529  0.47171094     0.81300
N556        N  0.98640087  0.24012629  0.01753996    -0.77000
C557        C  0.98492814  0.20039674  0.03789987     0.83800
N558        N  0.98389671  0.16449827  0.00976252    -0.76900
C559        C  0.99848903  0.17925706  0.46326619     0.83900
N560        N  0.99860089  0.21855674  0.44446771    -0.78600
O561        O  0.88620355  0.02230333  0.25417059    -0.87100
C562        C  0.61892184  0.11671006  0.39623755     1.13000
O563        O  0.93751169  0.47613528  0.30584703    -1.34900
O564        O  0.59668604  0.12466402  0.27004042    -0.88600
O565        O  0.84018021  0.43771574  0.24665767    -0.89200
O566        O  0.94667843  0.42719574  0.20772221    -0.78100
O567        O  0.99335876  0.07142109  0.26778553    -1.00100
C568        C  0.57514348  0.46713734  0.24060819     1.23000
O569        O  0.98670533  0.42310346  0.31431524    -1.35000
Mn570      Mn  0.98130931  0.47261659  0.36382321     1.82100
O571        O  0.53831769  0.46688849  0.22198690    -0.77100
O572        O  0.64027865  0.08665149  0.28027917    -0.86500
C573        C  0.56647858  0.46980432  0.41180631     1.14100
C574        C  0.63318526  0.11877303  0.26101405     1.08800
O575        O  0.92304899  0.41957926  0.40621825    -0.78100
O576        O  0.53490042  0.02512729  0.31942457    -1.31800
O577        O  0.88754877  0.37835719  0.34509042    -0.97300
C578        C  0.99516468  0.33389871  0.25041975     1.07500
Mn579      Mn  0.60509050  0.03148625  0.32911730     1.48600
O580        O  0.95214566  0.32861371  0.25496181    -0.86500
Mn581      Mn  0.86713557  0.41165217  0.30051618     1.49600
O582        O  0.88085972  0.02546811  0.35871820    -0.90400
C583        C  0.99325072  0.06127437  0.22593524     1.20700
C584        C  0.84152235  0.47643397  0.36453577     1.12800
Mn585      Mn  0.99401897  0.47607067  0.26184842     1.81000
O586        O  0.57516040  0.46877523  0.36972915    -0.95500
Mn587      Mn  0.93700751  0.04500675  0.31032189     1.49300
C588        C  0.85061220  0.47879706  0.22930759     1.09300
Mn589      Mn  0.54308497  0.41202312  0.32421752     1.49900
C590        C  0.97639532  0.32815895  0.38295295     1.12200
O591        O  0.89616067  0.38342949  0.25922723    -1.01300
O592        O  0.62742654  0.08292320  0.38429450    -0.91000
C593        C  0.90591265  0.39053857  0.21783178     1.23500
O594        O  0.57746611  0.46814927  0.28297449    -1.01700
O595        O  0.58727864  0.12439919  0.37507733    -0.89100
O596        O  0.51568707  0.35859971  0.37607947    -0.88700
O597        O  0.83516940  0.43498695  0.35177129    -0.88700
Mn598      Mn  0.53756944  0.09409499  0.31742421     1.47900
O599        O  0.52968498  0.47351979  0.42199890    -0.77200
C600        C  0.88780386  0.38190161  0.38746176     1.16500
O601        O  0.99077432  0.02154287  0.21594412    -0.75900
O602        O  0.98604073  0.02597880  0.41332896    -0.75500
Mn603      Mn  0.92137198  0.35480953  0.30492029     1.51100
O604        O  0.51854050  0.35928471  0.27030336    -0.87900
O605        O  0.99085418  0.07489192  0.35905099    -0.95400
O606        O  0.93838978  0.32030582  0.35889887    -0.90400
C607        C  0.98936978  0.06549639  0.40143356     1.14300
C608        C  0.99288958  0.10004120  0.43907444    -0.15300
C609        C  0.99348805  0.14156561  0.42883714    -0.30500
H610        H  0.46840036  0.07553454  0.47328437     0.13700
H611        H  0.99070038  0.14932359  0.39196401     0.14300
C612        C  0.00548522  0.29841756  0.44954454    -0.15300
C613        C  0.97056217  0.29082507  0.41708116    -0.30500
H614        H  0.03637358  0.33495933  0.45700241     0.12100
H615        H  0.51093769  0.30333417  0.44323853     0.14300
C616        C  0.99363104  0.09390408  0.18777857    -0.15300
C617        C  0.99668121  0.13671327  0.19841579    -0.30500
H618        H  0.98916844  0.08172847  0.15130326     0.13700
H619        H  0.48012916  0.13999383  0.23449317     0.14300
C620        C  0.97270314  0.27576556  0.18299230    -0.15300
C621        C  0.00227771  0.30053119  0.21970205    -0.30500
H622        H  0.53499735  0.33411725  0.18243456     0.13700
H623        H  0.03302292  0.29493213  0.22886237     0.14300
C624        C  0.80586565  0.47851104  0.39627027    -0.15300
C625        C  0.78736697  0.45071751  0.43469888    -0.30500
H626        H  0.80697584  0.02288540  0.40263828     0.13700
H627        H  0.80128079  0.42723363  0.44678500     0.14300
C628        C  0.63840669  0.46253890  0.42900391    -0.15300
C629        C  0.60059604  0.46686928  0.44615804    -0.30500
H630        H  0.64306626  0.46150965  0.39116034     0.13700
H631        H  0.58794713  0.96541929  0.48570207     0.14300
C632        C  0.76869953  0.44918945  0.19221801    -0.15300
C633        C  0.81812760  0.47956949  0.19108781    -0.30500
H634        H  0.75298324  0.42393505  0.22134499     0.13700
H635        H  0.83373283  0.50871902  0.16535565     0.14300
C636        C  0.61499443  0.46478353  0.21599057    -0.15300
C637        C  0.61753550  0.45958056  0.16964047    -0.30500
H638        H  0.64430846  0.46677656  0.23874745     0.13700
H639        H  0.58901348  0.45796542  0.14604540     0.14300
C640        C  0.84499653  0.34327529  0.41226246    -0.15300
C641        C  0.83212859  0.34650513  0.45624655    -0.30500
H642        H  0.82086170  0.31072570  0.39134291     0.13700
H643        H  0.85597241  0.37815255  0.47826898     0.14300
C644        C  0.66945246  0.19851516  0.43164529    -0.15300
C645        C  0.64910939  0.14976828  0.43543564    -0.30500
H646        H  0.66236318  0.21328339  0.39983360     0.13700
H647        H  0.66059749  0.13490969  0.46426663     0.14300
C648        C  0.83010696  0.31444547  0.19803389    -0.15300
C649        C  0.86968624  0.35595762  0.18260059    -0.30500
H650        H  0.82745923  0.30587495  0.23535571     0.13700
H651        H  0.87381672  0.36524497  0.14548196     0.14300
C652        C  0.67177989  0.15255034  0.22916714    -0.15300
C653        C  0.66322540  0.17368153  0.19212818    -0.30500
H654        H  0.70940723  0.16062170  0.23690261     0.13700
H655        H  0.62561245  0.16314718  0.18122871     0.14300
C656        C  0.70130610  0.20951910  0.66053122     0.81300
N657        N  0.70010857  0.21586603  0.61324968    -0.77000
C658        C  0.73989629  0.25389193  0.59237346     0.83800
N659        N  0.77995557  0.28589611  0.61900278    -0.76900
C660        C  0.78081710  0.27964227  0.66609079     0.83900
N661        N  0.74168620  0.24138289  0.68641871    -0.78600
C662        C  0.70487988  0.23531889  0.97074802     0.81300
N663        N  0.70481336  0.22696818  0.51208560    -0.77000
C664        C  0.74138748  0.26043502  0.54120243     0.83800
N665        N  0.78171363  0.29958652  0.52273824    -0.76900
C666        C  0.78299399  0.30708969  0.97996119     0.83900
N667        N  0.74457314  0.27472258  0.95201745    -0.78600
C668        C  0.73686527  0.45591929  0.65729890     0.81300
N669        N  0.69951123  0.46017172  0.67600825    -0.77000
C670        C  0.66618151  0.46397282  0.64771600     0.83800
N671        N  0.66981453  0.46203119  0.60048466    -0.76900
C672        C  0.70692484  0.45729110  0.58143972     0.83900
N673        N  0.74082903  0.45463713  0.60985065    -0.78600
C674        C  0.74640973  0.45595318  0.96275114     0.81300
N675        N  0.71246383  0.46184294  0.93784435    -0.77000
C676        C  0.67601680  0.46493779  0.95978825     0.83800
N677        N  0.67442294  0.45884189  0.50460975    -0.76900
C678        C  0.70938295  0.45543103  0.53030784     0.83900
N679        N  0.74596491  0.45171128  0.50831721    -0.78600
C680        C  0.01605199  0.25830320  0.66147786     0.81300
N681        N  0.00812794  0.21916388  0.68690571    -0.77000
C682        C  0.00362462  0.17864576  0.66597907     0.83800
N683        N  0.00550484  0.17641298  0.61778263    -0.76900
C684        C  0.01279914  0.21588145  0.59161238     0.83900
N685        N  0.01840023  0.25663167  0.61404141    -0.78600
C686        C  0.98547863  0.24402652  0.97023046     0.81300
N687        N  0.01150100  0.25504120  0.51868809    -0.77000
C688        C  0.01013511  0.21547109  0.53916784     0.83800
N689        N  0.00369478  0.17702233  0.51127901    -0.76900
C690        C  0.98362465  0.16912959  0.96160166     0.83900
N691        N  0.98399420  0.20853528  0.94275781    -0.78600
O692        O  0.88405740  0.01892596  0.74885279    -0.87100
C693        C  0.62667807  0.12220139  0.89337578     1.13000
O694        O  0.93319297  0.47494447  0.80795810    -1.34900
O695        O  0.59647879  0.12407911  0.76584808    -0.88600
O696        O  0.83760721  0.44100093  0.74856534    -0.89200
O697        O  0.93904896  0.42510132  0.70898963    -0.78100
O698        O  0.99326832  0.07314040  0.76648140    -1.00100
C699        C  0.58675212  0.48030540  0.73936330     1.23000
O700        O  0.97786389  0.41752358  0.81432396    -1.35000
Mn701      Mn  0.97665552  0.46862039  0.86507138     1.82100
O702        O  0.55047584  0.48055270  0.71999415    -0.77100
O703        O  0.63948384  0.08556558  0.77651991    -0.86500
C704        C  0.56628564  0.47353979  0.91069008     1.14100
C705        C  0.63174569  0.11663950  0.75579061     1.08800
O706        O  0.91795019  0.41754695  0.90777731    -0.78100
O707        O  0.53730610  0.02872017  0.82244876    -1.31800
O708        O  0.87980521  0.37805439  0.84659892    -0.97300
C709        C  0.97782605  0.32715110  0.74464109     1.07500
Mn710      Mn  0.60691529  0.03348155  0.82882964     1.48600
O711        O  0.93607412  0.32141761  0.75620537    -0.86500
Mn712      Mn  0.86145455  0.41269458  0.80218063     1.49600
O713        O  0.87559336  0.01236336  0.85503921    -0.90400
C714        C  0.99795461  0.06614166  0.72463980     1.20700
C715        C  0.84031745  0.47984991  0.86751713     1.12800
Mn716      Mn  0.98739405  0.47209694  0.76285539     1.81000
O717        O  0.57813407  0.47633269  0.86904419    -0.95500
Mn718      Mn  0.93421812  0.04053274  0.80659704     1.49300
C719        C  0.84960194  0.48261131  0.73176934     1.09300
Mn720      Mn  0.55196993  0.42144833  0.82196323     1.49900
C721        C  0.96289787  0.31844022  0.87930104     1.12200
O722        O  0.88714248  0.38187748  0.76005563    -1.01300
O723        O  0.63373077  0.08744137  0.88169748    -0.91000
C724        C  0.89766574  0.38928271  0.71869804     1.23500
O725        O  0.58817775  0.47946792  0.78201384    -1.01700
O726        O  0.59567674  0.13075536  0.87215175    -0.89100
O727        O  0.52141243  0.36665595  0.87267461    -0.88700
O728        O  0.83172035  0.43793795  0.85368579    -0.88700
Mn729      Mn  0.54195629  0.09844291  0.81780483     1.47900
O730        O  0.52626777  0.47188932  0.91907498    -0.77200
C731        C  0.88087625  0.38159662  0.88897830     1.16500
O732        O  0.00221350  0.03010757  0.71382338    -0.75900
O733        O  0.97711927  0.01897011  0.90985716    -0.75500
Mn734      Mn  0.90987686  0.35127558  0.80598667     1.51100
O735        O  0.53428236  0.36934813  0.76884799    -0.87900
O736        O  0.98592561  0.07081647  0.85719400    -0.95400
O737        O  0.92459895  0.31506657  0.85948780    -0.90400
C738        C  0.98170274  0.05933470  0.89912488     1.14300
C739        C  0.98091793  0.09138654  0.93712125    -0.15300
C740        C  0.98398024  0.13409368  0.92713264    -0.30500
H741        H  0.48875563  0.09305458  0.97838636     0.13700
H742        H  0.98666683  0.14461871  0.89035722     0.14300
C743        C  0.98723128  0.28670223  0.94788285    -0.15300
C744        C  0.95547296  0.27979986  0.91239727    -0.30500
H745        H  0.01654963  0.32323835  0.95795483     0.12100
H746        H  0.44152428  0.25703260  0.90897144     0.14300
C747        C  0.00131107  0.10065466  0.68747372    -0.15300
C748        C  0.99542736  0.13861010  0.69809390    -0.30500
H749        H  0.01028645  0.09576734  0.65179428     0.13700
H750        H  0.49411555  0.14885018  0.73528092     0.14300
C751        C  0.01749475  0.30007656  0.68582132    -0.15300
C752        C  0.97738175  0.29275145  0.70934279    -0.30500
H753        H  0.43809933  0.28341362  0.67144030     0.13700
H754        H  0.94296198  0.25803725  0.70481311     0.14300
C755        C  0.80623572  0.48324313  0.90019162    -0.15300
C756        C  0.78568812  0.45350120  0.93696863    -0.30500
H757        H  0.76256160  0.93948771  0.88623801     0.13700
H758        H  0.79690838  0.42735829  0.94717251     0.14300
C759        C  0.64018093  0.47058355  0.93096330    -0.15300
C760        C  0.59933751  0.47037925  0.94646430    -0.30500
H761        H  0.64812005  0.47397496  0.89348757     0.13700
H762        H  0.60272468  0.98142126  0.98788679     0.14300
C763        C  0.77092482  0.45030253  0.68895383    -0.15300
C764        C  0.81894713  0.48478676  0.69301050    -0.30500
H765        H  0.75466034  0.42055827  0.71402750     0.13700
H766        H  0.83394929  0.51719275  0.67114155     0.14300
C767        C  0.62684157  0.47923020  0.71407712    -0.15300
C768        C  0.62600232  0.46967688  0.66803030    -0.30500
H769        H  0.65782300  0.48377526  0.73591711     0.13700
H770        H  0.59552896  0.46524252  0.64551214     0.14300
C771        C  0.83748692  0.34472081  0.91397048    -0.15300
C772        C  0.82853387  0.34698299  0.95942303    -0.30500
H773        H  0.81042359  0.31404532  0.89250794     0.13700
H774        H  0.85546941  0.37674268  0.98176911     0.14300
C775        C  0.66540935  0.20009854  0.93858773    -0.15300
C776        C  0.65701016  0.15433571  0.93309148    -0.30500
H777        H  0.64942257  0.21438468  0.91343924     0.13700
H778        H  0.67698103  0.14195996  0.95553732     0.14300
C779        C  0.82206299  0.31413107  0.69671856    -0.15300
C780        C  0.86215157  0.35570519  0.68259244    -0.30500
H781        H  0.81782083  0.30516139  0.73396145     0.13700
H782        H  0.86791320  0.36527898  0.64558071     0.14300
C783        C  0.66862326  0.14791646  0.72128006    -0.15300
C784        C  0.65924738  0.16945719  0.68505228    -0.30500
H785        H  0.70632615  0.15548047  0.72748573     0.13700
H786        H  0.62156077  0.15994519  0.67566913     0.14300
C787        C  0.70150881  0.70387156  0.16072230     0.81300
N788        N  0.70335468  0.71111110  0.11346114    -0.77000
C789        C  0.74395564  0.75008119  0.09459607     0.83800
N790        N  0.78184651  0.78231345  0.12346922    -0.76900
C791        C  0.77937783  0.77516659  0.17082197     0.83900
N792        N  0.73949901  0.73589388  0.18883313    -0.78600
C793        C  0.69082638  0.72164375  0.47014975     0.81300
N794        N  0.70941313  0.72541834  0.01407226    -0.77000
C795        C  0.74716619  0.75729763  0.04322274     0.83800
N796        N  0.78842714  0.79564979  0.02464442    -0.76900
C797        C  0.77039286  0.79015806  0.46220536     0.83900
N798        N  0.72708700  0.75501669  0.44303915    -0.78600
C799        C  0.74281148  0.96534889  0.16017038     0.81300
N800        N  0.70325775  0.96606358  0.17828418    -0.77000
C801        C  0.67345501  0.97570814  0.15057244     0.83800
N802        N  0.68278493  0.98325176  0.10412225    -0.76900
C803        C  0.72211709  0.98234270  0.08528571     0.83900
N804        N  0.75260678  0.97376182  0.11341891    -0.78600
C805        C  0.74848845  0.96267956  0.46651478     0.81300
N806        N  0.71443614  0.96803125  0.44111505    -0.77000
C807        C  0.67725966  0.97026340  0.46274865     0.83800
N808        N  0.68897040  0.98363806  0.00852243    -0.76900
C809        C  0.72719059  0.98596864  0.03400045     0.83900
N810        N  0.76687859  0.98860849  0.01155920    -0.78600
C811        C  0.99941560  0.75093292  0.16085043     0.81300
N812        N  0.99522628  0.71296508  0.18611331    -0.77000
C813        C  0.99561248  0.67465503  0.16512698     0.83800
N814        N  0.99877330  0.67333734  0.11703633    -0.76900
C815        C  0.00240396  0.71139511  0.09088315     0.83900
N816        N  0.00356570  0.75028750  0.11338119    -0.78600
C817        C  0.00509894  0.75400804  0.46997783     0.81300
N818        N  0.00635660  0.75203961  0.01714192    -0.77000
C819        C  0.00302467  0.71186795  0.03826732     0.83800
N820        N  0.99796099  0.67363206  0.01070044    -0.76900
C821        C  0.99945656  0.67759272  0.46075701     0.83900
N822        N  0.00496637  0.71937022  0.44233636    -0.78600
O823        O  0.88636736  0.51942367  0.24445947    -0.87100
C824        C  0.62336098  0.61286051  0.39030760     1.13000
O825        O  0.93460641  0.97625505  0.31380695    -1.34900
O826        O  0.59655387  0.61792449  0.26402336    -0.88600
O827        O  0.83735332  0.94078896  0.25634560    -0.89200
O828        O  0.93324358  0.92097477  0.21751653    -0.78100
O829        O  0.99464698  0.57306886  0.26478213    -1.00100
C830        C  0.58513732  0.97788661  0.24173083     1.23000
O831        O  0.97822258  0.91839738  0.31909694    -1.35000
Mn832      Mn  0.98226900  0.97291398  0.36785969     1.82100
O833        O  0.54936628  0.97862879  0.22174909    -0.77100
O834        O  0.63702677  0.57673644  0.27271646    -0.86500
C835        C  0.56341861  0.97098721  0.41257544     1.14100
C836        C  0.63055468  0.60898297  0.25297438     1.08800
O837        O  0.92873851  0.92684202  0.41471226    -0.78100
O838        O  0.53496578  0.52269728  0.31873147    -1.31800
O839        O  0.87958045  0.88021284  0.36074347    -0.97300
C840        C  0.97175310  0.82244408  0.25355320     1.07500
Mn841      Mn  0.60350205  0.52514993  0.32487699     1.48600
O842        O  0.93152614  0.81699341  0.26998702    -0.86500
Mn843      Mn  0.86154026  0.91388121  0.31247278     1.49600
O844        O  0.87539963  0.51702231  0.34879172    -0.90400
C845        C  0.99854315  0.56556862  0.22302771     1.20700
C846        C  0.84526192  0.98642461  0.37498929     1.12800
Mn847      Mn  0.98506261  0.97046200  0.26617709     1.81000
O848        O  0.57522408  0.97328119  0.37104777    -0.95500
Mn849      Mn  0.93516168  0.54230993  0.30337719     1.49300
C850        C  0.85042454  0.98236134  0.23827124     1.09300
Mn851      Mn  0.54948346  0.91837283  0.32381724     1.49900
C852        C  0.96937836  0.82604838  0.39010588     1.12200
O853        O  0.88264650  0.87793818  0.27070592    -1.01300
O854        O  0.63129740  0.57907817  0.37720394    -0.91000
C855        C  0.89285130  0.88473477  0.22881547     1.23500
O856        O  0.58568783  0.97660665  0.28436573    -1.01700
O857        O  0.59224465  0.62187651  0.37015846    -0.89100
O858        O  0.51793654  0.86345981  0.37409395    -0.88700
O859        O  0.83503906  0.94370293  0.36229962    -0.88700
Mn860      Mn  0.54075678  0.59278391  0.31466056     1.47900
O861        O  0.52286044  0.96837815  0.42049709    -0.77200
C862        C  0.88847113  0.89023925  0.40294001     1.16500
O863        O  0.00079524  0.52830289  0.21246634    -0.75900
O864        O  0.97669305  0.52148718  0.40886403    -0.75500
Mn865      Mn  0.90889571  0.85175863  0.31892263     1.51100
O866        O  0.53279816  0.86629339  0.27077554    -0.87900
O867        O  0.98613698  0.57281977  0.35511261    -0.95400
O868        O  0.92899646  0.82191054  0.37479499    -0.90400
C869        C  0.98190755  0.56186810  0.39725133     1.14300
C870        C  0.98335675  0.59515851  0.43492374    -0.15300
C871        C  0.99840585  0.64200800  0.42624504    -0.30500
H872        H  0.48092003  0.58642558  0.47438683     0.13700
H873        H  0.00878571  0.65516096  0.39048684     0.14300
C874        C  0.00784080  0.79686470  0.44780671    -0.15300
C875        C  0.96684048  0.79295321  0.42767453    -0.30500
H876        H  0.04431628  0.82749079  0.44006111     0.12100
H877        H  0.43627644  0.75274115  0.40688219     0.14300
C878        C  0.00013162  0.59947187  0.18587566    -0.15300
C879        C  0.99253935  0.63637377  0.19714036    -0.30500
H880        H  0.00755668  0.59422053  0.14972668     0.13700
H881        H  0.48181219  0.63702541  0.23452504     0.14300
C882        C  0.00053657  0.79273087  0.18584377    -0.15300
C883        C  0.96781656  0.78460704  0.22001924    -0.30500
H884        H  0.43728259  0.77780897  0.17323648     0.13700
H885        H  0.93720872  0.74756177  0.22496071     0.14300
C886        C  0.81236157  0.99177638  0.40769542    -0.15300
C887        C  0.78775844  0.95962211  0.44169480    -0.30500
H888        H  0.79458896  0.50501684  0.38758088     0.13700
H889        H  0.79530037  0.93045153  0.45003857     0.14300
C890        C  0.64050349  0.97430430  0.43366520    -0.15300
C891        C  0.59770258  0.97040233  0.44869879    -0.30500
H892        H  0.64916817  0.97906407  0.39634725     0.13700
H893        H  0.59519300  0.46796267  0.48379920     0.14300
C894        C  0.77354773  0.95449365  0.19202624    -0.15300
C895        C  0.82227347  0.98566527  0.19755990    -0.30500
H896        H  0.75453398  0.92522825  0.21720154     0.13700
H897        H  0.84014271  0.01808866  0.17572392     0.14300
C898        C  0.62593194  0.97728236  0.21730763    -0.15300
C899        C  0.63100319  0.97769807  0.17058090    -0.30500
H900        H  0.65352398  0.97592686  0.24008102     0.13700
H901        H  0.60442571  0.98001845  0.14717344     0.14300
C902        C  0.85326557  0.86005500  0.43992993    -0.15300
C903        C  0.80807705  0.82309155  0.42851835    -0.30500
H904        H  0.86455166  0.86854854  0.47672691     0.13700
H905        H  0.79751434  0.81583584  0.39141701     0.14300
C906        C  0.64825109  0.68072985  0.44674092    -0.15300
C907        C  0.65403212  0.64454375  0.42940251    -0.30500
H908        H  0.61775291  0.68558431  0.43496403     0.13700
H909        H  0.68584396  0.64157069  0.44078844     0.14300
C910        C  0.81761397  0.80949366  0.20432556    -0.15300
C911        C  0.85821244  0.85118573  0.19220862    -0.30500
H912        H  0.81101576  0.80018165  0.24139892     0.13700
H913        H  0.86591122  0.86091015  0.15536329     0.14300
C914        C  0.66760056  0.63992405  0.21860137    -0.15300
C915        C  0.65883501  0.66253585  0.18301452    -0.30500
H916        H  0.70512888  0.64698729  0.22486284     0.13700
H917        H  0.62140474  0.65384140  0.17358135     0.14300
C918        C  0.71226379  0.71465984  0.66074081     0.81300
N919        N  0.70794411  0.72022811  0.61386238    -0.77000
C920        C  0.74673519  0.75583316  0.58947876     0.83800
N921        N  0.78994040  0.78727186  0.61287067    -0.76900
C922        C  0.79410247  0.78189371  0.66015945     0.83900
N923        N  0.75549583  0.74542127  0.68333748    -0.78600
C924        C  0.71241756  0.73274915  0.96673895     0.81300
N925        N  0.69781504  0.72268198  0.51732941    -0.77000
C926        C  0.74088645  0.75788693  0.53779617     0.83800
N927        N  0.77781648  0.79178120  0.51006012    -0.76900
C928        C  0.79194158  0.80247318  0.97733362     0.83900
N929        N  0.75345913  0.77125696  0.94883424    -0.78600
C930        C  0.73497695  0.95868628  0.66279777     0.81300
N931        N  0.69571119  0.95962942  0.68160178    -0.77000
C932        C  0.66205297  0.96330824  0.65346063     0.83800
N933        N  0.66719961  0.96457631  0.60635209    -0.76900
C934        C  0.70577870  0.96287095  0.58709281     0.83900
N935        N  0.74013202  0.96043327  0.61525204    -0.78600
C936        C  0.76733429  0.98817869  0.96347412     0.81300
N937        N  0.72836382  0.98523646  0.93873216    -0.77000
C938        C  0.68942164  0.98330112  0.96110259     0.83800
N939        N  0.67471993  0.96822350  0.51015589    -0.76900
C940        C  0.70911414  0.96367144  0.53598316     0.83900
N941        N  0.74573871  0.96016964  0.51419353    -0.78600
C942        C  0.98048829  0.73926404  0.65749984     0.81300
N943        N  0.98567408  0.70677233  0.68408303    -0.77000
C944        C  0.99154180  0.67112639  0.66416211     0.83800
N945        N  0.99356012  0.66857935  0.61595044    -0.76900
C946        C  0.98899156  0.70209468  0.58883315     0.83900
N947        N  0.98192840  0.73668003  0.61016380    -0.78600
C948        C  0.00363238  0.75439543  0.96977356     0.81300
N949        N  0.99983264  0.74719638  0.51689909    -0.77000
C950        C  0.99477171  0.70581424  0.53684690     0.83800
N951        N  0.99431988  0.67030767  0.50858673    -0.76900
C952        C  0.99626052  0.67678427  0.96237596     0.83900
N953        N  0.99866824  0.71691529  0.94293021    -0.78600
O954        O  0.88532369  0.52251499  0.74791407    -0.87100
C955        C  0.62386397  0.61947364  0.89429091     1.13000
O956        O  0.93825149  0.97518391  0.80517409    -1.34900
O957        O  0.60172796  0.62831100  0.76657232    -0.88600
O958        O  0.84342185  0.93723568  0.74187063    -0.89200
O959        O  0.95095473  0.93003747  0.70575242    -0.78100
O960        O  0.99250058  0.57165921  0.76636132    -1.00100
C961        C  0.57930235  0.97465089  0.74470207     1.23000
O962        O  0.98894979  0.92365703  0.81238386    -1.35000
Mn963      Mn  0.98208912  0.97126549  0.86294547     1.82100
O964        O  0.54257845  0.97461136  0.72594584    -0.77100
O965        O  0.64489128  0.59008673  0.77773605    -0.86500
C966        C  0.57116498  0.97850182  0.91589692     1.14100
C967        C  0.63832626  0.62239270  0.75789308     1.08800
O968        O  0.92389036  0.91707803  0.90358933    -0.78100
O969        O  0.53868040  0.52873466  0.81778329    -1.31800
O970        O  0.88768311  0.87624410  0.84190932    -0.97300
C971        C  0.99990837  0.83743754  0.74683479     1.07500
Mn972      Mn  0.60862228  0.53442922  0.82677429     1.48600
O973        O  0.95652338  0.83097620  0.75189665    -0.86500
Mn974      Mn  0.86837595  0.91005764  0.79619446     1.49600
O975        O  0.87533050  0.51993827  0.85228005    -0.90400
C976        C  0.99534539  0.56332567  0.72454010     1.20700
C977        C  0.83945605  0.97003092  0.86455488     1.12800
Mn978      Mn  0.99628720  0.97747163  0.76141514     1.81000
O979        O  0.57962976  0.97759438  0.87383803    -0.95500
Mn980      Mn  0.93395096  0.54287835  0.80617947     1.49300
C981        C  0.85145774  0.97911530  0.72928337     1.09300
Mn982      Mn  0.54887618  0.92015614  0.82953278     1.49900
C983        C  0.97895140  0.82805232  0.87921004     1.12200
O984        O  0.89902707  0.88338881  0.75508307    -1.01300
O985        O  0.63139388  0.58514921  0.88224118    -0.91000
C986        C  0.91035998  0.89236426  0.71398805     1.23500
O987        O  0.58218391  0.97596966  0.78714090    -1.01700
O988        O  0.59363704  0.62874520  0.87251400    -0.89100
O989        O  0.52137554  0.86772441  0.88233853    -0.88700
O990        O  0.83268771  0.93076192  0.84522922    -0.88700
Mn991      Mn  0.54319177  0.59846598  0.81529015     1.47900
O992        O  0.53235154  0.97856752  0.92588860    -0.77200
C993        C  0.88822408  0.87995272  0.88455989     1.16500
O994        O  0.99579249  0.52514379  0.71412897    -0.75900
O995        O  0.97616457  0.51962676  0.91119803    -0.75500
Mn996      Mn  0.92397392  0.85507179  0.80153538     1.51100
O997        O  0.52708954  0.86564045  0.77843848    -0.87900
O998        O  0.98513397  0.57100529  0.85758296    -0.95400
O999        O  0.94104860  0.82047365  0.85515220    -0.90400
C1000       C  0.98140899  0.56021916  0.89981817     1.14300
C1001       C  0.98423932  0.59437706  0.93785864    -0.15300
C1002       C  0.99270745  0.63935922  0.92809459    -0.30500
H1003       H  0.47453037  0.58212050  0.97163503     0.13700
H1004       H  0.99667492  0.65001416  0.89129005     0.14300
C1005       C  0.00568941  0.79695223  0.94680231    -0.15300
C1006       C  0.97266363  0.78983393  0.91244780    -0.30500
H1007       H  0.03560180  0.83348067  0.95603818     0.12100
H1008       H  0.43787455  0.76729778  0.93603459     0.14300
C1009       C  0.99682399  0.59665044  0.68671265    -0.15300
C1010       C  0.99510748  0.63701097  0.69759937    -0.30500
H1011       H  0.99740262  0.58702193  0.65007916     0.13700
H1012       H  0.48560110  0.64455719  0.73617003     0.14300
C1013       C  0.97494848  0.77784590  0.68057686    -0.15300
C1014       C  0.00733579  0.80527372  0.71466814    -0.30500
H1015       H  0.44528254  0.79306104  0.67070701     0.13700
H1016       H  0.03983636  0.80178304  0.72124332     0.14300
C1017       C  0.80064559  0.96555144  0.89667097    -0.15300
C1018       C  0.80938603  0.99092475  0.93728320    -0.30500
H1019       H  0.79754941  0.51197616  0.89344738     0.13700
H1020       H  0.84703550  0.01387407  0.95069404     0.14300
C1021       C  0.64838863  0.98041135  0.93307075    -0.15300
C1022       C  0.60791130  0.98000163  0.95023538    -0.30500
H1023       H  0.65272077  0.97909813  0.89519482     0.13700
H1024       H  0.59022377  0.46663204  0.98361612     0.14300
C1025       C  0.76980041  0.95328888  0.69445189    -0.15300
C1026       C  0.81937220  0.98149224  0.69178647    -0.30500
H1027       H  0.75406180  0.92889781  0.72420395     0.13700
H1028       H  0.83556550  0.01020315  0.66566462     0.14300
C1029       C  0.61863611  0.97197103  0.71982465    -0.15300
C1030       C  0.62038077  0.96659683  0.67345602    -0.30500
H1031       H  0.64803112  0.97369644  0.74226559     0.13700
H1032       H  0.59175821  0.96531466  0.65022717     0.14300
C1033       C  0.84560562  0.84190553  0.91021914    -0.15300
C1034       C  0.83787158  0.84243577  0.95659145    -0.30500
H1035       H  0.81807462  0.81178384  0.88855120     0.13700
H1036       H  0.86534824  0.87154459  0.97915817     0.14300
C1037       C  0.67248586  0.69942779  0.93379323    -0.15300
C1038       C  0.65336246  0.65077037  0.93465208    -0.30500
H1039       H  0.66469465  0.71567566  0.90353835     0.13700
H1040       H  0.66571484  0.63492679  0.96183229     0.14300
C1041       C  0.83803729  0.81534127  0.68910651    -0.15300
C1042       C  0.87583877  0.85934923  0.67649956    -0.30500
H1043       H  0.83655409  0.80405803  0.72552521     0.13700
H1044       H  0.87927790  0.87190537  0.64042628     0.14300
C1045       C  0.67765195  0.65630936  0.72591980    -0.15300
C1046       C  0.66984998  0.67693138  0.68775666    -0.30500
H1047       H  0.71517035  0.66445129  0.73426116     0.13700
H1048       H  0.63229333  0.66614793  0.67644467     0.14300
loop_ 
_geom_bond_atom_site_label_1 
_geom_bond_atom_site_label_2 
_geom_bond_distance 
_geom_bond_site_symmetry_2 
_ccdc_geom_bond_type 
C1            N2   1.358       .  A
C1            N6   1.351       .  A
C1          C129   1.468       .  S
N2            C3   1.364       .  A
C3            N4   1.365       .  A
C3            C9   1.474       .  S
N4            C5   1.360       .  A
C5            N6   1.348       .  A
C5          C124   1.470       .  S
C7           N12   1.346       .  A
C7          N139   1.350       .  A
C7          C120   1.455       .  S
N8            C9   1.365       .  A
N8          C138   1.360   1_554  A
C9           N10   1.363       .  A
N10         C142   1.357   1_554  A
C11          N12   1.350       .  A
C11         N141   1.371       .  A
C11         C117   1.480       .  S
C13          N14   1.358       .  A
C13          N18   1.362       .  A
C13         C108   1.474       .  S
N14          C15   1.359       .  A
C15          N16   1.350       .  A
C15         C113   1.479       .  S
N16          C17   1.358       .  A
C17          N18   1.363       .  A
C17          C23   1.465       .  S
C19          N20   1.354       .  A
C19         N155   1.354       .  A
C19         C101   1.460       .  S
N20          C21   1.351       .  A
C21         N153   1.347       .  A
C21         C104   1.454       .  S
N22          C23   1.359       .  A
N22         C152   1.349   1_554  A
C23          N24   1.365       .  A
N24         C150   1.362   1_554  A
C25          N26   1.348       .  A
C25          N30   1.353       .  A
C25          C96   1.474       .  S
N26          C27   1.352       .  A
C27          N28   1.373       .  A
C27          C93   1.482       .  S
N28          C29   1.374       .  A
C29          N30   1.365       .  A
C29          C33   1.491       .  S
C31          N36   1.345       .  A
C31         N163   1.350       .  A
C31          C88   1.466       .  S
N32          C33   1.366       .  A
N32         C162   1.354   1_554  A
C33          N34   1.374       .  A
N34         C166   1.374   1_554  A
C35          N36   1.352       .  A
C35         N165   1.377       .  A
C35          C85   1.482       .  S
O37         Mn63   2.112       .  S
O37         C326   1.273   1_545  A
C38         C121   1.465       .  S
C38          O71   1.271       .  A
C38          O68   1.269       .  A
O39         Mn46   2.165       .  S
O39         Mn57   2.136       .  S
O39         Mn61   2.173       .  S
O39        Mn325   2.141       .  S
O40         Mn74   2.091       .  S
O40          C50   1.270       .  A
O41         Mn57   2.104       .  S
O41          C64   1.274       .  A
O42         Mn61   2.082       .  S
O42          C69   1.252       .  A
O43         Mn63   1.965       .  S
O43        Mn598   1.970       .  S
O43          C59   1.230       .  S
C44         C112   1.470       .  S
C44          O47   1.256       .  A
C44          O70   1.212       .  S
O45         Mn46   2.165       .  S
O45         Mn79   2.132       .  S
O45         Mn61   2.173       .  S
O45        Mn589   2.105       .  S
Mn46         O51   2.078       .  S
Mn46        O599   2.127       .  S
Mn46        O340   2.065       .  S
Mn46        O838   2.153       .  S
O47        Mn585   2.126   1_455  S
O48         Mn55   2.084       .  S
O48          C50   1.268       .  A
C49         C105   1.473       .  S
C49          O75   1.249       .  A
C49          O62   1.233       .  A
C50         C128   1.465       .  S
O51          C76   1.246       .  A
O52         Mn55   2.112       .  S
O52         Mn74   2.129       .  S
O52        Mn832   2.150   1_445  S
O52        Mn847   2.164   1_445  S
O53         Mn57   1.974       .  S
O53         Mn79   1.970       .  S
O53          C76   1.229       .  S
C54          C97   1.471       .  S
C54          O56   1.271       .  A
C54         O604   1.271       .  A
Mn55         O68   2.081       .  S
Mn55        O332   1.935   1_545  S
Mn55        O324   1.950   1_545  S
O56         Mn79   2.095       .  S
Mn57         O73   2.084       .  S
Mn57         O67   1.970       .  S
O58         Mn63   2.088       .  S
O58         C322   1.271   1_545  A
C59          C92   1.490       .  S
C59          O77   1.250       .  A
C60         C100   1.456       .  S
C60          O73   1.270       .  A
C60         O320   1.265       .  A
Mn61        O571   2.150       .  S
Mn61        O339   2.106       .  S
Mn61        O838   2.165       .  S
O62         Mn65   1.993       .  S
O62        Mn317   1.995       .  S
Mn63        O301   2.134   1_545  S
Mn63         O81   1.997       .  S
C64         C109   1.483       .  S
C64         O299   1.272       .  A
Mn65         O72   2.081       .  S
Mn65         O80   2.074       .  S
Mn65        O569   2.107   1_455  S
Mn65         O70   1.967       .  S
C66          C89   1.473       .  S
C66          O82   1.272       .  A
C66         O596   1.268       .  A
O67         Mn79   1.973       .  S
O67          C69   1.228       .  S
C69         C125   1.476       .  S
O70        Mn317   1.974       .  S
O71         Mn74   2.081       .  S
O72         C590   1.269   1_455  A
Mn74        O567   1.960   1_455  S
Mn74        O605   1.987   1_455  S
O75        Mn570   2.133   1_455  S
C76         C116   1.486       .  S
O77        Mn323   2.091   1_545  S
O78        Mn308   2.068   1_545  S
O78          C83   1.250       .  A
Mn79         O82   2.097       .  S
O80         C578   1.268   1_455  A
O81        Mn598   1.993       .  S
O81          C83   1.237       .  S
C83          C84   1.488       .  S
C84          C85   1.335       .  D
C84         H610   1.086       .  S
C85          H87   1.088       .  S
H86         C608   1.086       .  S
C88          C89   1.341       .  D
C88          H90   1.086       .  S
C89         H615   1.088       .  S
H91         C613   1.088       .  S
C92          C93   1.340       .  D
C92          H94   1.086       .  S
C93         H619   1.088       .  S
H95         C617   1.088   1_455  S
C96          C97   1.344       .  D
C96         H622   1.086       .  S
C97          H99   1.088       .  S
H98         C620   1.086       .  S
C100        C101   1.337       .  D
C100        H364   1.088       .  S
C101        H103   1.087       .  S
H102        C362   1.088       .  S
C104        C105   1.351       .  D
C104        H106   1.089       .  S
C105        H369   1.087       .  S
H107        C367   1.086       .  S
C108        C109   1.344       .  D
C108        H110   1.086       .  S
C109        H111   1.087       .  S
C112        C113   1.337       .  D
C112        H114   1.087       .  S
C113        H115   1.087       .  S
C116        C117   1.337       .  D
C116        H118   1.086       .  S
C117        H119   1.087       .  S
C120        C121   1.339       .  D
C120        H122   1.086       .  S
C121        H123   1.088       .  S
C124        C125   1.339       .  D
C124        H126   1.087       .  S
C125        H127   1.086       .  S
C128        C129   1.342       .  D
C128        H130   1.088       .  S
C129        H131   1.086       .  S
C132        N133   1.358       .  A
C132        N137   1.352       .  A
C132        C260   1.487       .  S
N133        C134   1.368       .  A
C134        N135   1.365       .  A
C134        C140   1.480       .  S
N135        C136   1.364       .  A
C136        N137   1.356       .  A
C136        C255   1.470       .  S
C138        N143   1.355       .  A
C138        C251   1.480       .  S
N139        C140   1.359       .  A
C140        N141   1.374       .  A
C142        N143   1.360       .  A
C142        C248   1.486       .  S
C144        N145   1.356       .  A
C144        N149   1.357       .  A
C144        C239   1.467       .  S
N145        C146   1.360       .  A
C146        N147   1.344       .  A
C146        C244   1.468       .  S
N147        C148   1.353       .  A
C148        N149   1.359       .  A
C148        C154   1.447       .  S
C150        N151   1.357       .  A
C150        C232   1.481       .  S
N151        C152   1.355       .  A
C152        C235   1.466       .  S
N153        C154   1.357       .  A
C154        N155   1.358       .  A
C156        N157   1.349       .  A
C156        N161   1.349       .  A
C156        C227   1.473       .  S
N157        C158   1.355       .  A
C158        N159   1.377       .  A
C158        C224   1.488       .  S
N159        C160   1.376       .  A
C160        N161   1.363       .  A
C160        C164   1.493       .  S
C162        N167   1.347       .  A
C162        C219   1.471       .  S
N163        C164   1.364       .  A
C164        N165   1.375       .  A
C166        N167   1.350       .  A
C166        C216   1.482       .  S
O168       Mn194   2.090       .  S
O168        C457   1.270   1_545  A
C169        C252   1.482       .  S
C169        O202   1.274       .  A
C169        O199   1.270       .  A
O170       Mn177   2.164       .  S
O170       Mn188   2.121       .  S
O170       Mn192   2.176       .  S
O170       Mn456   2.134       .  S
O171       Mn205   2.112       .  S
O171        C181   1.275       .  A
O172       Mn188   2.082       .  S
O172        C195   1.270       .  A
O173       Mn192   2.117       .  S
O173        C200   1.252       .  A
O174       Mn729   1.979       .  S
O174       Mn194   1.974       .  S
O174        C190   1.232       .  S
C175        C243   1.456       .  S
C175        O178   1.253       .  A
C175        O201   1.204       .  S
O176       Mn720   2.110       .  S
O176       Mn177   2.172       .  S
O176       Mn210   2.114       .  S
O176       Mn192   2.169       .  S
Mn177       O730   2.133       .  S
Mn177       O182   2.133       .  S
Mn177       O471   2.070       .  S
Mn177       O969   2.189       .  S
O178       Mn716   2.123   1_455  S
O179       Mn186   2.103       .  S
O179        C181   1.274       .  A
C180        C236   1.483       .  S
C180        O206   1.255       .  A
C180        O193   1.233       .  A
C181        C259   1.482       .  S
O182        C207   1.254       .  A
O183       Mn963   2.182   1_445  S
O183       Mn186   2.110       .  S
O183       Mn205   2.140       .  S
O183       Mn978   2.170   1_445  S
O184       Mn188   1.941       .  S
O184       Mn210   1.950       .  S
O184        C207   1.211       .  S
C185        C228   1.473       .  S
C185        O735   1.269       .  A
C185        O187   1.274       .  A
Mn186       O199   2.095       .  S
Mn186       O463   1.965   1_545  S
Mn186       O455   1.940   1_545  S
O187       Mn210   2.103       .  S
Mn188       O204   2.111       .  S
Mn188       O198   1.969       .  S
O189       Mn194   2.077       .  S
O189        C453   1.268   1_545  A
C190        C223   1.495       .  S
C190        O208   1.252       .  A
C191        C231   1.474       .  S
C191        O451   1.271       .  A
C191        O204   1.275       .  A
Mn192       O702   2.124       .  S
Mn192       O470   2.095       .  S
Mn192       O969   2.175       .  S
O193       Mn448   2.011       .  S
O193       Mn196   2.011       .  S
Mn194       O432   2.144   1_545  S
Mn194       O212   1.984       .  S
C195        C240   1.475       .  S
C195        O430   1.272       .  A
Mn196       O203   2.092       .  S
Mn196       O211   2.099       .  S
Mn196       O700   2.107   1_455  S
Mn196       O201   1.955       .  S
C197        C220   1.470       .  S
C197        O727   1.270       .  A
C197        O213   1.270       .  A
O198       Mn210   1.958       .  S
O198        C200   1.218       .  S
C200        C256   1.481       .  S
O201       Mn448   1.954       .  S
O202       Mn205   2.109       .  S
O203        C721   1.271   1_455  A
Mn205       O698   1.977   1_455  S
Mn205       O736   1.986   1_455  S
O206       Mn701   2.147   1_455  S
C207        C247   1.474       .  S
O208       Mn454   2.094   1_545  S
O209       Mn439   2.070   1_545  S
O209        C214   1.248       .  A
Mn210       O213   2.091       .  S
O211        C709   1.272   1_455  A
O212       Mn729   1.977       .  S
O212        C214   1.235       .  S
C214        C215   1.487       .  S
C215        C216   1.335       .  D
C215        H741   1.086       .  S
C216        H218   1.087       .  S
H217        C739   1.086       .  S
C219        C220   1.344       .  D
C219        H221   1.086       .  S
C220        H746   1.088       .  S
H222        C744   1.088       .  S
C223        C224   1.342       .  D
C223        H225   1.086       .  S
C224        H750   1.088       .  S
H226        C748   1.087       .  S
C227        C228   1.340       .  D
C227        H753   1.086       .  S
C228        H230   1.088       .  S
H229        C751   1.086       .  S
C231        C232   1.345       .  D
C231        H495   1.087       .  S
C232        H234   1.086       .  S
H233        C493   1.088   1_545  S
C235        C236   1.357       .  D
C235        H237   1.088       .  S
C236        H500   1.087       .  S
H238        C498   1.086       .  S
C239        C240   1.344       .  D
C239        H241   1.087       .  S
C240        H242   1.087       .  S
C243        C244   1.329       .  D
C243        H245   1.088       .  S
C244        H246   1.087       .  S
C247        C248   1.342       .  D
C247        H249   1.087       .  S
C248        H250   1.086       .  S
C251        C252   1.344       .  D
C251        H253   1.087       .  S
C252        H254   1.087       .  S
C255        C256   1.345       .  D
C255        H257   1.088       .  S
C256        H258   1.086       .  S
C259        C260   1.348       .  D
C259        H261   1.087       .  S
C260        H262   1.086       .  S
C263        N264   1.357       .  A
C263        N268   1.350       .  A
C263        C391   1.484       .  S
N264        C265   1.368       .  A
C265        N266   1.364       .  A
C265        C271   1.479       .  S
N266        C267   1.363       .  A
C267        N268   1.355       .  A
C267        C386   1.468       .  S
C269        N401   1.363       .  A
C269        N274   1.354       .  A
C269        C382   1.481       .  S
N270        C400   1.349   1_554  A
N270        C271   1.358       .  A
C271        N272   1.374       .  A
N272        C404   1.372   1_554  A
C273        N403   1.356       .  A
C273        N274   1.359       .  A
C273        C379   1.482       .  S
C275        N276   1.358       .  A
C275        N280   1.359       .  A
C275        C370   1.474       .  S
N276        C277   1.361       .  A
C277        N278   1.346       .  A
C277        C375   1.471       .  S
N278        C279   1.354       .  A
C279        N280   1.362       .  A
C279        C285   1.454       .  S
C281        N282   1.353       .  A
C281        N417   1.360       .  A
C281        C363   1.473       .  S
N282        C283   1.350       .  A
C283        N415   1.354       .  A
C283        C366   1.464       .  S
N284        C414   1.351   1_554  A
N284        C285   1.360       .  A
C285        N286   1.359       .  A
N286        C412   1.355   1_554  A
C287        N288   1.349       .  A
C287        N292   1.348       .  A
C287        C358   1.471       .  S
N288        C289   1.356       .  A
C289        N290   1.374       .  A
C289        C355   1.484       .  S
N290        C291   1.374       .  A
C291        N292   1.362       .  A
C291        C295   1.485       .  S
C293        N425   1.348       .  A
C293        N298   1.347       .  A
C293        C350   1.461       .  S
N294        C424   1.349   1_554  A
N294        C295   1.362       .  A
C295        N296   1.372       .  A
N296        C428   1.374   1_554  A
C297        N427   1.378       .  A
C297        N298   1.348       .  A
C297        C347   1.490       .  S
O299       Mn325   2.100       .  S
C300        C383   1.485       .  S
C300        O333   1.274       .  A
C300        O330   1.268       .  A
O301       Mn308   2.169       .  S
O301       Mn319   2.122       .  S
O301       Mn323   2.178       .  S
O302       Mn336   2.115       .  S
O302        C312   1.274       .  A
O303       Mn319   2.083       .  S
O303        C326   1.269       .  A
O304       Mn323   2.118       .  S
O304        C331   1.252       .  A
O305       Mn860   1.957       .  S
O305       Mn325   1.953       .  S
O305        C321   1.227       .  S
C306        C374   1.457       .  S
C306        O309   1.253       .  A
C306        O332   1.203       .  S
O307       Mn851   2.105       .  S
O307       Mn308   2.171       .  S
O307       Mn341   2.114       .  S
O307       Mn323   2.167       .  S
Mn308       O861   2.139       .  S
Mn308       O313   2.121       .  S
Mn308       O576   2.177   1_565  S
O309       Mn847   2.131   1_455  S
O310       Mn317   2.089       .  S
O310        C312   1.270       .  A
C311        C367   1.476       .  S
C311        O337   1.248       .  A
C311        O324   1.212       .  S
C312        C390   1.478       .  S
O313        C338   1.253       .  A
O314       Mn570   2.193   1_455  S
O314       Mn317   2.110       .  S
O314       Mn336   2.140       .  S
O314       Mn585   2.180   1_455  S
O315       Mn319   1.940       .  S
O315       Mn341   1.947       .  S
O315        C338   1.213       .  S
C316        C359   1.474       .  S
C316        O866   1.270       .  A
C316        O318   1.274       .  A
Mn317       O330   2.090       .  S
O318       Mn341   2.101       .  S
Mn319       O335   2.098       .  S
Mn319       O329   1.963       .  S
O320       Mn325   2.069       .  S
C321        C354   1.493       .  S
C321        O339   1.253       .  A
C322        C362   1.467       .  S
C322        O335   1.272       .  A
Mn323       O833   2.128       .  S
Mn323       O576   2.172   1_565  S
O324       Mn327   1.948       .  S
Mn325       O343   1.999       .  S
C326        C371   1.480       .  S
Mn327       O334   2.078       .  S
Mn327       O342   2.109       .  S
Mn327       O831   2.110   1_455  S
Mn327       O332   1.938       .  S
C328        C351   1.460       .  S
C328        O858   1.270       .  A
C328        O344   1.266       .  A
O329       Mn341   1.953       .  S
O329        C331   1.217       .  S
C331        C387   1.481       .  S
O333       Mn336   2.116       .  S
O334        C852   1.269   1_455  A
Mn336       O829   1.969   1_455  S
Mn336       O867   1.987   1_455  S
O337       Mn832   2.117   1_455  S
C338        C378   1.471       .  S
O340        C345   1.248       .  A
Mn341       O344   2.073       .  S
O342        C840   1.274   1_455  A
O343       Mn860   1.995       .  S
O343        C345   1.239       .  S
C345        C346   1.495       .  S
C346        C347   1.336       .  D
C346        H872   1.086       .  S
C347        H349   1.087       .  S
H348        C870   1.086       .  S
C350        C351   1.337       .  D
C350        H352   1.086       .  S
C351        H877   1.088       .  S
H353        C875   1.088       .  S
C354        C355   1.344       .  D
C354        H356   1.086       .  S
C355        H881   1.088       .  S
H357        C879   1.087       .  S
C358        C359   1.340       .  D
C358        H884   1.086       .  S
C359        H361   1.088       .  S
H360        C882   1.086       .  S
C362        C363   1.344       .  D
C363        H365   1.086       .  S
C366        C367   1.346       .  D
C366        H368   1.088       .  S
C370        C371   1.347       .  D
C370        H372   1.087       .  S
C371        H373   1.086   1_565  S
C374        C375   1.330       .  D
C374        H376   1.088       .  S
C375        H377   1.087       .  S
C378        C379   1.341       .  D
C378        H380   1.087       .  S
C379        H381   1.086       .  S
C382        C383   1.343       .  D
C382        H384   1.087       .  S
C383        H385   1.087       .  S
C386        C387   1.345       .  D
C386        H388   1.088       .  S
C387        H389   1.086       .  S
C390        C391   1.347       .  D
C390        H392   1.087       .  S
C391        H393   1.086       .  S
C394        N395   1.358       .  A
C394        N399   1.353       .  A
C394        C522   1.472       .  S
N395        C396   1.363       .  A
C396        N397   1.367       .  A
C396        C402   1.476       .  S
N397        C398   1.361       .  A
C398        N399   1.351       .  A
C398        C517   1.477       .  S
C400        N405   1.347       .  A
C400        C513   1.453       .  S
N401        C402   1.368       .  A
C402        N403   1.361       .  A
C404        N405   1.351       .  A
C404        C510   1.482       .  S
C406        N407   1.363       .  A
C406        N411   1.359       .  A
C406        C501   1.478       .  S
N407        C408   1.364       .  A
C408        N409   1.354       .  A
C408        C506   1.486       .  S
N409        C410   1.359       .  A
C410        N411   1.360       .  A
C410        C416   1.467       .  S
C412        N413   1.354       .  A
C412        C494   1.460       .  S
N413        C414   1.351       .  A
C414        C497   1.464       .  S
N415        C416   1.361       .  A
C416        N417   1.365       .  A
C418        N419   1.350       .  A
C418        N423   1.356       .  A
C418        C489   1.487       .  S
N419        C420   1.354       .  A
C420        N421   1.371       .  A
C420        C486   1.478       .  S
N421        C422   1.370       .  A
C422        N423   1.370       .  A
C422        C426   1.491       .  S
C424        N429   1.346       .  A
C424        C481   1.461       .  S
N425        C426   1.361       .  A
C426        N427   1.380       .  A
C428        N429   1.352       .  A
C428        C478   1.479       .  S
O430       Mn456   2.103       .  S
C431        C514   1.468       .  S
C431        O464   1.269       .  A
C431        O461   1.269       .  A
O432       Mn439   2.164       .  S
O432       Mn450   2.138       .  S
O432       Mn454   2.173       .  S
O433       Mn467   2.096       .  S
O433        C443   1.271       .  A
O434       Mn450   2.112       .  S
O434        C457   1.275       .  A
O435       Mn454   2.104       .  S
O435        C462   1.252       .  A
O436       Mn991   1.965       .  S
O436       Mn456   1.959       .  S
O436        C452   1.227       .  S
C437        C505   1.478       .  S
C437        O440   1.259       .  A
C437        O463   1.213       .  S
O438       Mn982   2.108       .  S
O438       Mn439   2.165       .  S
O438       Mn472   2.132       .  S
O438       Mn454   2.168       .  S
Mn439       O992   2.138       .  S
Mn439       O444   2.078       .  S
Mn439       O707   2.167   1_565  S
O440       Mn978   2.136   1_455  S
O441       Mn448   2.083       .  S
O441        C443   1.268       .  A
C442        C498   1.477       .  S
C442        O468   1.249       .  A
C442        O455   1.209       .  S
C443        C521   1.467       .  S
O444        C469   1.249       .  A
O445       Mn701   2.173   1_455  S
O445       Mn448   2.112       .  S
O445       Mn467   2.135       .  S
O445       Mn716   2.171   1_455  S
O446       Mn450   1.980       .  S
O446       Mn472   1.986       .  S
O446        C469   1.232       .  S
C447        C490   1.478       .  S
C447        O997   1.268       .  A
C447        O449   1.277       .  A
Mn448       O461   2.085       .  S
O449       Mn472   2.129       .  S
Mn450       O466   2.086       .  S
Mn450       O460   1.967       .  S
O451       Mn456   2.091       .  S
C452        C485   1.487       .  S
C452        O470   1.250       .  A
C453        C493   1.461       .  S
C453        O466   1.271       .  A
Mn454       O964   2.139       .  S
Mn454       O707   2.170   1_565  S
O455       Mn458   1.931       .  S
Mn456       O474   1.995       .  S
C457        C502   1.482       .  S
Mn458       O465   2.091       .  S
Mn458       O473   2.084       .  S
Mn458       O962   2.112   1_455  S
Mn458       O463   1.960       .  S
C459        C482   1.470       .  S
C459        O989   1.270       .  A
C459        O475   1.269       .  A
O460       Mn472   1.963       .  S
O460        C462   1.223       .  S
C462        C518   1.484       .  S
O464       Mn467   2.073       .  S
O465        C983   1.271   1_455  A
Mn467       O960   1.962   1_455  S
Mn467       O998   1.982   1_455  S
O468       Mn963   2.127   1_455  S
C469        C509   1.487       .  S
O471        C476   1.250       .  A
Mn472       O475   2.087       .  S
O473        C971   1.270   1_455  A
O474       Mn991   1.989       .  S
O474        C476   1.235       .  S
C476        C477   1.484       .  S
C477        C478   1.335       .  D
C477       H1003   1.086       .  S
C478        H480   1.088       .  S
H479       C1001   1.086       .  S
C481        C482   1.340       .  D
C481        H483   1.086       .  S
C482       H1008   1.088       .  S
H484       C1006   1.088       .  S
C485        C486   1.341       .  D
C485        H487   1.086       .  S
C486       H1012   1.087       .  S
H488       C1010   1.087       .  S
C489        C490   1.345       .  D
C489       H1015   1.086       .  S
C490        H492   1.088       .  S
H491       C1013   1.086       .  S
C493        C494   1.338       .  D
C494        H496   1.087       .  S
C497        C498   1.349       .  D
C497        H499   1.087       .  S
C501        C502   1.343       .  D
C501        H503   1.086       .  S
C502        H504   1.088   1_565  S
C505        C506   1.339       .  D
C505        H507   1.087       .  S
C506        H508   1.086       .  S
C509        C510   1.338       .  D
C509        H511   1.086       .  S
C510        H512   1.087       .  S
C513        C514   1.340       .  D
C513        H515   1.086       .  S
C514        H516   1.088       .  S
C517        C518   1.344       .  D
C517        H519   1.087       .  S
C518        H520   1.086       .  S
C521        C522   1.342       .  D
C521        H523   1.088       .  S
C522        H524   1.086       .  S
C525        N526   1.358       .  A
C525        N530   1.357       .  A
C525        C653   1.472       .  S
N526        C527   1.361       .  A
C527        N528   1.361       .  A
C527        C533   1.462       .  S
N528        C529   1.352       .  A
C529        N530   1.353       .  A
C529        C648   1.469       .  S
C531        N663   1.362       .  A
C531        N536   1.358       .  A
C531        C644   1.478       .  S
N532        C662   1.362   1_554  A
N532        C533   1.364       .  A
C533        N534   1.356       .  A
N534        C666   1.348   1_554  A
C535        N665   1.350       .  A
C535        N536   1.361       .  A
C535        C641   1.480       .  S
C537        N538   1.360       .  A
C537        N542   1.361       .  A
C537        C632   1.477       .  S
N538        C539   1.362       .  A
C539        N540   1.348       .  A
C539        C637   1.483       .  S
N540        C541   1.357       .  A
C541        N542   1.362       .  A
C541        C547   1.459       .  S
C543        N544   1.356       .  A
C543        N679   1.362       .  A
C543        C625   1.477       .  S
N544        C545   1.352       .  A
C545        N677   1.345       .  A
C545        C628   1.453       .  S
N546        C676   1.348   1_554  A
N546        C547   1.358       .  A
C547        N548   1.364       .  A
N548        C674   1.360   1_554  A
C549        N550   1.350       .  A
C549        N554   1.349       .  A
C549        C620   1.474       .  S
N550        C551   1.355       .  A
C551        N552   1.375       .  A
C551        C617   1.485       .  S
N552        C553   1.375       .  A
C553        N554   1.363       .  A
C553        C557   1.488       .  S
C555        N687   1.349       .  A
C555        N560   1.348   1_455  A
C555        C612   1.467       .  S
N556        C686   1.350   1_554  A
N556        C557   1.364       .  A
C557        N558   1.374       .  A
N558        C690   1.375   1_554  A
C559        N689   1.376   1_655  A
C559        N560   1.352       .  A
C559        C609   1.485       .  S
O561       Mn587   2.084       .  S
O561        C850   1.268   1_545  A
C562        C645   1.480       .  S
C562        O595   1.273       .  A
C562        O592   1.271       .  A
O563       Mn570   2.162       .  S
O563       Mn581   2.118       .  S
O563       Mn585   2.178       .  S
O563       Mn849   2.132       .  S
O564       Mn598   2.105       .  S
O564        C574   1.273       .  A
O565       Mn581   2.095       .  S
O565        C588   1.272       .  A
O566       Mn585   2.135       .  S
O566        C593   1.254       .  A
O567       Mn587   1.959       .  S
O567        C583   1.229       .  S
C568        C636   1.470       .  S
C568        O571   1.255       .  A
C568        O594   1.203       .  S
O569       Mn570   2.173       .  S
O569       Mn603   2.107       .  S
O569       Mn585   2.170       .  S
Mn570       O575   2.137       .  S
Mn570       O864   2.066       .  S
O572       Mn579   2.072       .  S
O572        C574   1.267       .  A
C573        C629   1.470       .  S
C573        O599   1.250       .  A
C573        O586   1.232       .  A
C574        C652   1.466       .  S
O575        C600   1.254       .  A
O576       Mn579   2.111       .  S
O576       Mn598   2.141       .  S
O577       Mn581   1.942       .  S
O577       Mn603   1.948       .  S
O577        C600   1.207       .  S
C578        C621   1.470   1_655  S
C578        O580   1.276       .  A
Mn579       O592   2.098       .  S
Mn579       O848   1.996   1_545  S
Mn579       O856   1.976   1_545  S
O580       Mn603   2.112       .  S
Mn581       O597   2.107       .  S
Mn581       O591   1.958       .  S
O582       Mn587   2.080       .  S
O582        C846   1.268   1_545  A
C583        C616   1.493       .  S
C583        O601   1.251       .  A
C584        C624   1.469       .  S
C584        O844   1.271       .  A
C584        O597   1.274       .  A
Mn585       O863   2.098   1_655  S
O586       Mn841   2.008       .  S
O586       Mn589   2.009       .  S
Mn587       O825   2.140   1_545  S
Mn587       O605   1.989       .  S
C588        C633   1.482       .  S
C588        O823   1.273       .  A
Mn589       O596   2.084       .  S
Mn589       O604   2.093       .  S
Mn589       O594   1.949       .  S
C590        C613   1.469       .  S
C590        O606   1.270       .  A
O591       Mn603   1.952       .  S
O591        C593   1.211       .  S
C593        C649   1.480       .  S
O594       Mn841   1.953       .  S
O595       Mn598   2.103       .  S
C600        C640   1.470       .  S
O601       Mn847   2.097   1_545  S
O602       Mn832   2.070   1_545  S
O602        C607   1.248       .  A
Mn603       O606   2.094       .  S
O605        C607   1.235       .  S
C607        C608   1.490       .  S
C608        C609   1.336       .  D
C609        H611   1.087       .  S
C612        C613   1.342   1_455  D
C612        H614   1.087       .  S
C616        C617   1.342       .  D
C616        H618   1.086       .  S
C620        C621   1.338   1_655  D
C621        H623   1.088       .  S
C624        C625   1.344       .  D
C624        H888   1.088       .  S
C625        H627   1.086       .  S
H626        C886   1.088   1_545  S
C628        C629   1.353       .  D
C628        H630   1.089       .  S
C629        H893   1.087       .  S
H631        C891   1.087       .  S
C632        C633   1.347       .  D
C632        H634   1.087       .  S
C633        H635   1.087       .  S
C636        C637   1.334       .  D
C636        H638   1.088       .  S
C637        H639   1.086       .  S
C640        C641   1.336       .  D
C640        H642   1.088       .  S
C641        H643   1.086       .  S
C644        C645   1.345       .  D
C644        H646   1.087       .  S
C645        H647   1.087       .  S
C648        C649   1.351       .  D
C648        H650   1.088       .  S
C649        H651   1.086       .  S
C652        C653   1.340       .  D
C652        H654   1.088       .  S
C653        H655   1.086       .  S
C656        N657   1.360       .  A
C656        N661   1.354       .  A
C656        C784   1.472       .  S
N657        C658   1.364       .  A
C658        N659   1.362       .  A
C658        C664   1.465       .  S
N659        C660   1.353       .  A
C660        N661   1.350       .  A
C660        C779   1.467       .  S
C662        N667   1.355       .  A
C662        C775   1.474       .  S
N663        C664   1.363       .  A
C664        N665   1.358       .  A
C666        N667   1.359       .  A
C666        C772   1.474       .  S
C668        N669   1.355       .  A
C668        N673   1.356       .  A
C668        C763   1.460       .  S
N669        C670   1.358       .  A
C670        N671   1.351       .  A
C670        C768   1.479       .  S
N671        C672   1.360       .  A
C672        N673   1.357       .  A
C672        C678   1.457       .  S
C674        N675   1.354       .  A
C674        C756   1.472       .  S
N675        C676   1.351       .  A
C676        C759   1.458       .  S
N677        C678   1.353       .  A
C678        N679   1.366       .  A
C680        N681   1.347       .  A
C680        N685   1.352       .  A
C680        C751   1.470       .  S
N681        C682   1.352       .  A
C682        N683   1.373       .  A
C682        C748   1.478   1_455  S
N683        C684   1.372       .  A
C684        N685   1.365       .  A
C684        C688   1.489       .  S
C686        N691   1.347       .  A
C686        C743   1.468       .  S
N687        C688   1.362       .  A
C688        N689   1.375       .  A
C690        N691   1.352       .  A
C690        C740   1.481       .  S
O692       Mn718   2.109       .  S
O692        C981   1.273   1_545  A
C693        C776   1.481       .  S
C693        O726   1.273       .  A
C693        O723   1.270       .  A
O694       Mn701   2.172       .  S
O694       Mn712   2.113       .  S
O694       Mn716   2.175       .  S
O694       Mn980   2.138       .  S
O695       Mn729   2.102       .  S
O695        C705   1.273       .  A
O696       Mn712   2.077       .  S
O696        C719   1.269       .  A
O697       Mn716   2.118       .  S
O697        C724   1.251       .  A
O698       Mn718   1.977       .  S
O698        C714   1.232       .  S
C699        C767   1.467       .  S
C699        O702   1.255       .  A
C699        O725   1.211       .  S
O700       Mn701   2.178       .  S
O700       Mn734   2.111       .  S
O700       Mn716   2.169       .  S
Mn701       O706   2.128       .  S
Mn701       O995   2.082       .  S
O703       Mn710   2.078       .  S
O703        C705   1.268       .  A
C704        C760   1.476       .  S
C704        O730   1.251       .  A
C704        O717   1.234       .  A
C705        C783   1.467       .  S
O706        C731   1.253       .  A
O707       Mn710   2.107       .  S
O707       Mn729   2.140       .  S
O708       Mn712   1.932       .  S
O708       Mn734   1.939       .  S
O708        C731   1.206       .  S
C709        C752   1.473       .  S
C709        O711   1.271       .  A
Mn710       O723   2.093       .  S
Mn710       O979   2.001   1_545  S
Mn710       O987   1.964   1_545  S
O711       Mn734   2.089       .  S
Mn712       O728   2.102       .  S
Mn712       O722   1.958       .  S
O713       Mn718   2.114       .  S
O713        C977   1.275   1_545  A
C714        C747   1.485   1_655  S
C714        O732   1.250   1_655  A
C715        C755   1.466       .  S
C715        O975   1.268       .  A
C715        O728   1.273       .  A
Mn716       O994   2.091       .  S
O717       Mn972   2.000       .  S
O717       Mn720   1.999       .  S
Mn718       O956   2.133   1_545  S
Mn718       O736   1.988       .  S
C719        C764   1.472       .  S
C719        O954   1.269       .  A
Mn720       O727   2.090       .  S
Mn720       O735   2.084       .  S
Mn720       O725   1.971       .  S
C721        C744   1.468       .  S
C721        O737   1.268       .  A
O722       Mn734   1.951       .  S
O722        C724   1.215       .  S
C724        C780   1.478       .  S
O725       Mn972   1.973       .  S
O726       Mn729   2.104       .  S
C731        C771   1.462       .  S
O732       Mn978   2.082   1_445  S
O733       Mn963   2.076   1_545  S
O733        C738   1.250       .  A
Mn734       O737   2.084       .  S
O736        C738   1.234       .  S
C738        C739   1.488       .  S
C739        C740   1.336       .  D
C740        H742   1.087       .  S
C743        C744   1.340       .  D
C743        H745   1.086   1_655  S
C747        C748   1.337   1_455  D
C747        H749   1.086       .  S
C751        C752   1.342   1_455  D
C752        H754   1.088       .  S
C755        C756   1.342       .  D
C755       H1019   1.088       .  S
C756        H758   1.086       .  S
H757       C1017   1.087       .  S
C759        C760   1.352       .  D
C759        H761   1.089       .  S
C760       H1024   1.087       .  S
H762       C1022   1.087       .  S
C763        C764   1.341       .  D
C763        H765   1.087       .  S
C764        H766   1.087       .  S
C767        C768   1.338       .  D
C767        H769   1.087       .  S
C768        H770   1.086       .  S
C771        C772   1.333       .  D
C771        H773   1.088       .  S
C772        H774   1.086       .  S
C775        C776   1.343       .  D
C775        H777   1.086       .  S
C776        H778   1.087       .  S
C779        C780   1.347       .  D
C779        H781   1.087       .  S
C780        H782   1.086       .  S
C783        C784   1.342       .  D
C783        H785   1.088       .  S
C784        H786   1.086       .  S
C787        N788   1.358       .  A
C787        N792   1.352       .  A
C787        C915   1.469       .  S
N788        C789   1.364       .  A
C789        N790   1.365       .  A
C789        C795   1.473       .  S
N790        C791   1.360       .  A
C791        N792   1.348       .  A
C791        C910   1.471       .  S
C793        N925   1.351       .  A
C793        N798   1.346       .  A
C793        C906   1.456       .  S
N794        C924   1.360   1_554  A
N794        C795   1.364       .  A
C795        N796   1.363       .  A
N796        C928   1.357   1_554  A
C797        N927   1.371       .  A
C797        N798   1.350       .  A
C797        C903   1.478       .  S
C799        N800   1.355       .  A
C799        N804   1.362       .  A
C799        C894   1.471       .  S
N800        C801   1.357       .  A
C801        N802   1.350       .  A
C801        C899   1.480       .  S
N802        C803   1.360       .  A
C803        N804   1.362       .  A
C803        C809   1.465       .  S
C805        N806   1.355       .  A
C805        N941   1.357       .  A
C805        C887   1.468       .  S
N806        C807   1.354       .  A
C807        N939   1.349       .  A
C807        C890   1.461       .  S
N808        C938   1.346   1_554  A
N808        C809   1.356       .  A
C809        N810   1.367       .  A
N810        C936   1.365   1_554  A
C811        N812   1.349       .  A
C811        N816   1.356   1_655  A
C811        C882   1.484   1_655  S
N812        C813   1.355       .  A
C813        N814   1.372       .  A
C813        C879   1.480       .  S
N814        C815   1.371   1_655  A
C815        N816   1.369       .  A
C815        C819   1.494       .  S
C817        N949   1.348   1_455  A
C817        N822   1.345       .  A
C817        C874   1.459       .  S
N818        C948   1.350   1_554  A
N818        C819   1.362       .  A
C819        N820   1.379   1_455  A
N820        C952   1.377   1_554  A
C821        N951   1.375       .  A
C821        N822   1.351   1_655  A
C821        C871   1.478       .  S
O823       Mn849   2.109       .  S
C824        C907   1.466       .  S
C824        O857   1.271       .  A
C824        O854   1.269       .  A
O825       Mn832   2.161       .  S
O825       Mn843   2.136       .  S
O825       Mn847   2.167       .  S
O826       Mn860   2.101       .  S
O826        C836   1.272       .  A
O827       Mn843   2.109       .  S
O827        C850   1.275       .  A
O828       Mn847   2.085       .  S
O828        C855   1.251       .  A
O829       Mn849   1.960       .  S
O829        C845   1.228       .  S
C830        C898   1.468       .  S
C830        O833   1.256       .  A
C830        O856   1.211       .  S
O831       Mn832   2.162       .  S
O831       Mn865   2.129       .  S
O831       Mn847   2.162       .  S
Mn832       O837   2.075       .  S
O834       Mn841   2.069       .  S
O834        C836   1.265       .  A
C835        C891   1.478       .  S
C835        O861   1.251       .  A
C835        O848   1.231       .  A
C836        C914   1.464       .  S
O837        C862   1.246       .  A
O838       Mn841   2.106       .  S
O838       Mn860   2.135       .  S
O839       Mn843   1.978       .  S
O839       Mn865   1.979       .  S
O839        C862   1.230       .  S
C840        C883   1.482       .  S
C840        O842   1.275       .  A
Mn841       O854   2.081       .  S
O842       Mn865   2.108       .  S
Mn843       O859   2.096       .  S
Mn843       O853   1.976       .  S
O844       Mn849   2.087       .  S
C845        C878   1.488   1_655  S
C845        O863   1.252   1_655  A
C846        C886   1.466       .  S
C846        O859   1.272       .  A
O848       Mn851   2.003       .  S
Mn849       O867   1.999       .  S
C850        C895   1.477       .  S
Mn851       O858   2.085       .  S
Mn851       O866   2.087       .  S
Mn851       O856   1.967       .  S
C852        C875   1.470       .  S
C852        O868   1.270       .  A
O853       Mn865   1.971       .  S
O853        C855   1.226       .  S
C855        C911   1.477       .  S
O857       Mn860   2.083       .  S
C862        C902   1.484       .  S
O864        C869   1.249       .  A
Mn865       O868   2.091       .  S
O867        C869   1.236       .  S
C869        C870   1.484       .  S
C870        C871   1.334       .  D
C871        H873   1.088   1_655  S
C874        C875   1.341   1_455  D
C874        H876   1.086       .  S
C878        C879   1.342   1_455  D
C878        H880   1.086       .  S
C882        C883   1.348   1_455  D
C883        H885   1.087       .  S
C886        C887   1.339       .  D
C887        H889   1.087       .  S
C890        C891   1.354       .  D
C890        H892   1.089       .  S
C894        C895   1.339       .  D
C894        H896   1.087       .  S
C895        H897   1.088   1_565  S
C898        C899   1.337       .  D
C898        H900   1.087       .  S
C899        H901   1.086       .  S
C902        C903   1.336       .  D
C902        H904   1.086       .  S
C903        H905   1.087       .  S
C906        C907   1.339       .  D
C906        H908   1.086       .  S
C907        H909   1.088       .  S
C910        C911   1.340       .  D
C910        H912   1.087       .  S
C911        H913   1.086       .  S
C914        C915   1.341       .  D
C914        H916   1.088       .  S
C915        H917   1.086       .  S
C918        N919   1.356       .  A
C918        N923   1.352       .  A
C918       C1046   1.485       .  S
N919        C920   1.367       .  A
C920        N921   1.367       .  A
C920        C926   1.481       .  S
N921        C922   1.365       .  A
C922        N923   1.357       .  A
C922       C1041   1.475       .  S
C924        N929   1.354       .  A
C924       C1037   1.476       .  S
N925        C926   1.361       .  A
C926        N927   1.372       .  A
C928        N929   1.359       .  A
C928       C1034   1.484       .  S
C930        N931   1.358       .  A
C930        N935   1.359       .  A
C930       C1025   1.475       .  S
N931        C932   1.362       .  A
C932        N933   1.347       .  A
C932       C1030   1.478       .  S
N933        C934   1.356       .  A
C934        N935   1.361       .  A
C934        C940   1.455       .  S
C936        N937   1.357       .  A
C936       C1018   1.483       .  S
N937        C938   1.354       .  A
C938       C1021   1.461       .  S
N939        C940   1.358       .  A
C940        N941   1.361       .  A
C942        N943   1.348       .  A
C942        N947   1.348       .  A
C942       C1013   1.470       .  S
N943        C944   1.354       .  A
C944        N945   1.375       .  A
C944       C1010   1.483       .  S
N945        C946   1.374       .  A
C946        N947   1.363       .  A
C946        C950   1.487       .  S
C948        N953   1.348   1_455  A
C948       C1005   1.469       .  S
N949        C950   1.362       .  A
C950        N951   1.373       .  A
C952        N953   1.352       .  A
C952       C1002   1.490       .  S
O954       Mn980   2.095       .  S
C955       C1038   1.479       .  S
C955        O988   1.273       .  A
C955        O985   1.269       .  A
O956       Mn963   2.163       .  S
O956       Mn974   2.126       .  S
O956       Mn978   2.183       .  S
O957       Mn991   2.118       .  S
O957        C967   1.275       .  A
O958       Mn974   2.089       .  S
O958        C981   1.271       .  A
O959       Mn978   2.130       .  S
O959        C986   1.253       .  A
O960       Mn980   1.959       .  S
O960        C976   1.230       .  S
C961       C1029   1.464       .  S
C961        O964   1.256       .  A
C961        O987   1.205       .  S
O962       Mn963   2.168       .  S
O962       Mn996   2.112       .  S
O962       Mn978   2.160       .  S
Mn963       O968   2.122       .  S
O965       Mn972   2.089       .  S
O965        C967   1.270       .  A
C966       C1022   1.476       .  S
C966        O992   1.250       .  A
C966        O979   1.230       .  A
C967       C1045   1.480       .  S
O968        C993   1.254       .  A
O969       Mn972   2.110       .  S
O969       Mn991   2.139       .  S
O970       Mn974   1.955       .  S
O970       Mn996   1.961       .  S
O970        C993   1.215       .  S
C971       C1014   1.471   1_655  S
C971        O973   1.275       .  A
Mn972       O985   2.090       .  S
O973       Mn996   2.102       .  S
Mn974       O990   2.094       .  S
Mn974       O984   1.958       .  S
O975       Mn980   2.080       .  S
C976       C1009   1.490       .  S
C976        O994   1.250       .  A
C977       C1017   1.476       .  S
C977        O990   1.272       .  A
O979       Mn982   2.001       .  S
Mn980       O998   1.992       .  S
C981       C1026   1.478       .  S
Mn982       O989   2.084       .  S
Mn982       O997   2.078       .  S
Mn982       O987   1.959       .  S
C983       C1006   1.469       .  S
C983        O999   1.270       .  A
O984       Mn996   1.955       .  S
O984        C986   1.216       .  S
C986       C1042   1.487       .  S
O988       Mn991   2.106       .  S
C993       C1033   1.472       .  S
O995       C1000   1.253       .  A
Mn996       O999   2.089       .  S
O998       C1000   1.238       .  S
C1000      C1001   1.496       .  S
C1001      C1002   1.340       .  D
C1002      H1004   1.088       .  S
C1005      C1006   1.341   1_455  D
C1005      H1007   1.086       .  S
C1009      C1010   1.340       .  D
C1009      H1011   1.086       .  S
C1013      C1014   1.340   1_655  D
C1014      H1016   1.088       .  S
C1017      C1018   1.347       .  D
C1018      H1020   1.086   1_565  S
C1021      C1022   1.355       .  D
C1021      H1023   1.089       .  S
C1025      C1026   1.345       .  D
C1025      H1027   1.087       .  S
C1026      H1028   1.087   1_565  S
C1029      C1030   1.332       .  D
C1029      H1031   1.088       .  S
C1030      H1032   1.087       .  S
C1033      C1034   1.343       .  D
C1033      H1035   1.087       .  S
C1034      H1036   1.086       .  S
C1037      C1038   1.342       .  D
C1037      H1039   1.087       .  S
C1038      H1040   1.087       .  S
C1041      C1042   1.348       .  D
C1041      H1043   1.088       .  S
C1042      H1044   1.086       .  S
C1045      C1046   1.346       .  D
C1045      H1047   1.087       .  S
C1046      H1048   1.086       .  S
