geometry optimzed in LAMMPS
_audit_creation_date              2020-11-30 
_audit_creation_method            'lammps2cif' 
_symmetry_space_group_name_H-M    'P1' 
_symmetry_Int_Tables_number       1 
_symmetry_cell_setting            triclinic 
loop_ 
_symmetry_equiv_pos_as_xyz 
  x,y,z 
_cell_length_a                    46.83232436 
_cell_length_b                    47.14935727782447 
_cell_length_c                    34.792135081904036 
_cell_angle_alpha                 89.69919557818378 
_cell_angle_beta                  89.96527522121968 
_cell_angle_gamma                 90.83140696115497 
loop_ 
_atom_site_label 
_atom_site_type_symbol 
_atom_site_fract_x 
_atom_site_fract_y 
_atom_site_fract_z 
_atom_site_charge 
C1          C  0.42305074  0.18284258  0.04162174     0.30600
C2          C  0.42280056  0.18381378  0.46248555     0.30600
C3          C  0.39336322  0.18631854  0.02269666    -0.05600
C4          C  0.43936714  0.20775811  0.02249513    -0.06400
C5          C  0.43480683  0.15658500  0.02142713    -0.06300
C6          C  0.39326551  0.18670469  0.48208009    -0.05600
C7          C  0.43961293  0.20821097  0.48227414    -0.06400
C8          C  0.43531132  0.15743401  0.48160159    -0.06300
C9          C  0.37004398  0.20271080  0.47109103    -0.31700
N10         N  0.35583419  0.21137331  0.00262987     0.14800
C11         C  0.37051944  0.20280171  0.03397438    -0.31700
H12         H  0.36623609  0.20995475  0.06290120     0.16800
C13         C  0.45461410  0.23243703  0.47138781    -0.30600
N14         N  0.46313838  0.24636194  0.50360135     0.13600
C15         C  0.45342946  0.23186400  0.03476049    -0.30600
C16         C  0.44985966  0.13389090  0.46938826    -0.30900
N17         N  0.45737142  0.11840063  0.00070927     0.14100
H18         H  0.45526343  0.12879400  0.43999341     0.16700
C19         C  0.44806193  0.13188700  0.03265928    -0.30900
H20         H  0.45233490  0.12523386  0.06189789     0.16700
H21         H  0.45691128  0.23830677  0.06419476     0.16700
H22         H  0.36552069  0.20998457  0.44220043     0.16800
H23         H  0.45954626  0.23927810  0.44237345     0.16700
C24         C  0.42032358  0.18248392  0.21223595     0.30600
C25         C  0.42290486  0.18519606  0.29117360     0.30600
C26         C  0.43386608  0.15735752  0.23271524    -0.05600
C27         C  0.43686894  0.20820870  0.22919611    -0.06400
C28         C  0.39127824  0.18525765  0.23273195    -0.06300
C29         C  0.43552955  0.15873021  0.27242288    -0.05600
C30         C  0.43783439  0.20983017  0.26931394    -0.06400
C31         C  0.39256452  0.18669646  0.27332492    -0.06300
C32         C  0.45056053  0.13527546  0.28441309    -0.31700
N33         N  0.45731023  0.11967919  0.25299698     0.14800
C34         C  0.44706616  0.13290119  0.22131808    -0.31700
H35         H  0.45024238  0.12594888  0.19203701     0.16800
C36         C  0.45301402  0.23422414  0.27826736    -0.30600
N37         N  0.46228463  0.24660390  0.24512718     0.13600
C38         C  0.45224087  0.23118716  0.21509094    -0.30600
C39         C  0.36981221  0.20333369  0.28435240    -0.30900
N40         N  0.35425361  0.21046446  0.25314831     0.14100
H41         H  0.36638097  0.21186654  0.31279176     0.16700
C42         C  0.36768580  0.20065719  0.22169035    -0.30900
H43         H  0.36257200  0.20706540  0.19261155     0.16700
H44         H  0.45687462  0.23593666  0.18525460     0.16700
H45         H  0.45669858  0.13025171  0.31362702     0.16800
H46         H  0.45839104  0.24166471  0.30674348     0.16700
C47         C  0.37614464  0.42075086  0.45793417     0.30600
C48         C  0.37619864  0.42110053  0.03687312     0.30600
C49         C  0.40481997  0.42865399  0.47715795    -0.05600
C50         C  0.35609294  0.44231366  0.47703422    -0.06400
C51         C  0.36693142  0.39282725  0.47760669    -0.06300
C52         C  0.40474439  0.42874445  0.01758337    -0.05600
C53         C  0.35561180  0.44192902  0.01722531    -0.06400
C54         C  0.36698130  0.39301839  0.01797228    -0.06300
C55         C  0.42527505  0.44831376  0.02892292    -0.31700
N56         N  0.43823149  0.45934354  0.99747009     0.14800
C57         C  0.42552772  0.44826760  0.46595826    -0.31700
H58         H  0.42921316  0.45592264  0.43695659     0.16800
C59         C  0.33542960  0.46108965  0.02869162    -0.30600
N60         N  0.32489409  0.47403451  0.99702114     0.13600
C61         C  0.33726415  0.46287570  0.46532158    -0.30600
C62         C  0.34695421  0.37296958  0.02961703    -0.30900
N63         N  0.33556469  0.36022909  0.99841039     0.14100
H64         H  0.33948880  0.36948002  0.05874226     0.16700
C65         C  0.34675800  0.37268644  0.46660989    -0.30900
H66         H  0.33952452  0.36859168  0.43760069     0.16700
H67         H  0.33268029  0.46932788  0.43612199     0.16700
H68         H  0.42902305  0.45559701  0.05795596     0.16800
H69         H  0.32873447  0.46549917  0.05780184     0.16700
C70         C  0.37387798  0.42428384  0.20784261     0.30600
C71         C  0.37324033  0.42272411  0.28702048     0.30600
C72         C  0.40196739  0.43311262  0.22803977    -0.05600
C73         C  0.35145011  0.44276935  0.22742782    -0.06400
C74         C  0.36671390  0.39515879  0.22652797    -0.06300
C75         C  0.40152335  0.43256246  0.26836527    -0.05600
C76         C  0.35229062  0.44316625  0.26751146    -0.06400
C77         C  0.36753162  0.39424674  0.26687505    -0.06300
C78         C  0.42275700  0.45106718  0.28048313    -0.31700
N79         N  0.43646293  0.46190719  0.24937320     0.14800
C80         C  0.42399668  0.45133632  0.21732167    -0.31700
H81         H  0.42913302  0.45816426  0.18836269     0.16800
C82         C  0.33422974  0.46416109  0.27914744    -0.30600
N83         N  0.32093621  0.47476241  0.24777803     0.13600
C84         C  0.33058391  0.46132219  0.21612052    -0.30600
C85         C  0.35170452  0.37089060  0.27856987    -0.30900
N86         N  0.33952802  0.35877936  0.24741738     0.14100
H87         H  0.34613590  0.36553287  0.30795518     0.16700
C88         C  0.34763148  0.37381971  0.21586390    -0.30900
H89         H  0.33858759  0.37085037  0.18751741     0.16700
H90         H  0.32365018  0.46565911  0.18705359     0.16700
H91         H  0.42633941  0.45813693  0.30967194     0.16800
H92         H  0.33097807  0.47142041  0.30824749     0.16700
Zn93       Zn  0.48731320  0.03423364  0.03013770     1.49700
Zn94       Zn  0.02872619  0.06557721  0.46976697     1.49400
Zn95       Zn  0.05555954  0.02431066  0.03251038     1.49100
Zn96       Zn  0.01884705  0.49752184  0.46687272     1.49500
O97         O  0.02248504  0.03061608  0.99990276    -1.83600
O98         O  0.46806209  0.07214348  0.02039677    -0.74200
O99         O  0.06834199  0.08287688  0.47827898    -0.74000
O100        O  0.04397036  0.02698603  0.08707573    -0.73500
O101        O  0.99787214  0.09437743  0.48012945    -0.74200
O102        O  0.99695004  0.03351077  0.08601236    -0.73800
O103        O  0.08603091  0.05411068  0.02285426    -0.74400
O104        O  0.05032275  0.46912070  0.47392972    -0.73800
O105        O  0.02649621  0.05664503  0.41407038    -0.74500
O106        O  0.07328481  0.48560971  0.02499968    -0.73900
O107        O  0.01974708  0.00979838  0.41303397    -0.74400
O108        O  0.48173274  0.47675589  0.47476289    -0.74300
O109        O  0.45986642  0.00104948  0.02047704    -0.74100
C110        C  0.47514915  0.09385816  0.00033803     0.77700
C111        C  0.08854552  0.07553747  0.00058695     0.78200
C112        C  0.02030454  0.03058493  0.10411934     0.77200
C113        C  0.06960493  0.46668744  0.99942319     0.77500
C114        C  0.02292716  0.03349938  0.39606951     0.78700
C115        C  0.46078835  0.48012343  0.99741304     0.77700
Zn116      Zn  0.01678493  0.49868623  0.28351895     1.49700
Zn117      Zn  0.48710559  0.03652005  0.21947682     1.49400
Zn118      Zn  0.02845794  0.06613913  0.28093580     1.49100
Zn119      Zn  0.05482441  0.02491910  0.21801814     1.49500
O120        O  0.02170981  0.03176276  0.25035101    -1.83600
O121        O  0.47940644  0.47874579  0.27437207    -0.74200
O122        O  0.46824810  0.07431097  0.23078415    -0.75600
O123        O  0.02748444  0.05675130  0.33657201    -0.73500
O124        O  0.45922934  0.00350088  0.22746769    -0.74200
O125        O  0.01784610  0.01038683  0.33752582    -0.73800
O126        O  0.99748549  0.09490838  0.27296069    -0.74400
O127        O  0.08502136  0.05517340  0.22587231    -0.73800
O128        O  0.99704679  0.03599822  0.16358824    -0.74500
O129        O  0.06742344  0.08377398  0.27036425    -0.73900
O130        O  0.04346265  0.02639551  0.16331703    -0.74400
O131        O  0.07225330  0.48617806  0.22719436    -0.74300
O132        O  0.04742104  0.46954408  0.27686697    -0.74100
C133        C  0.45925917  0.48240411  0.25049818     0.77700
C134        C  0.47498846  0.09512074  0.25245646     0.78200
C135        C  0.02266784  0.03368745  0.35454993     0.77200
C136        C  0.08739184  0.07673925  0.24760496     0.77500
C137        C  0.02019171  0.03110475  0.14585698     0.78700
C138        C  0.06729460  0.46695859  0.25228349     0.77700
C139        C  0.11115064  0.37321733  0.46157451     0.30600
C140        C  0.11242436  0.37526303  0.04058950     0.30600
C141        C  0.10983910  0.40319114  0.47936437    -0.05600
C142        C  0.08578308  0.35862931  0.48238172    -0.06400
C143        C  0.13753097  0.36054041  0.48121028    -0.06300
C144        C  0.11100440  0.40420221  0.01983127    -0.05600
C145        C  0.08689969  0.35884164  0.02252282    -0.06400
C146        C  0.13761224  0.36046051  0.02113212    -0.06300
C147        C  0.09725717  0.42862121  0.03088416    -0.31700
N148        N  0.08748496  0.44219621  0.49930561     0.14800
C149        C  0.09391691  0.42639738  0.46818899    -0.31700
H150        H  0.08538076  0.43009734  0.43972081     0.16800
C151        C  0.06476542  0.34154691  0.03530076    -0.30600
N152        N  0.04969705  0.33220817  0.50445479     0.13600
C153        C  0.06170901  0.34325136  0.47214409    -0.30600
C154        C  0.16043084  0.34417499  0.03254432    -0.30900
N155        N  0.17531191  0.33645351  0.50090113     0.14100
H156        H  0.16586870  0.33828301  0.06171281     0.16700
C157        C  0.16157275  0.34633968  0.46931953    -0.30900
H158        H  0.16776197  0.34220408  0.43991974     0.16700
H159        H  0.05432806  0.33890328  0.44329187     0.16700
H160        H  0.09161509  0.43415747  0.06005334     0.16800
H161        H  0.06067922  0.33484676  0.06460552     0.16700
C162        C  0.11203710  0.37296438  0.29052558     0.30600
C163        C  0.11273853  0.37497143  0.21133437     0.30600
C164        C  0.14068834  0.36588338  0.27117762    -0.05600
C165        C  0.09108649  0.35241558  0.26995064    -0.06400
C166        C  0.10370614  0.40130722  0.27183588    -0.06300
C167        C  0.14133762  0.36704741  0.23088073    -0.05600
C168        C  0.09230808  0.35271088  0.22979130    -0.06400
C169        C  0.10515393  0.40264532  0.23195680    -0.06300
C170        C  0.16482918  0.35140680  0.21975035    -0.31700
N171        N  0.17856973  0.34181263  0.25146599     0.14800
C172        C  0.16348409  0.34963089  0.28284358    -0.31700
H173        H  0.16774220  0.34255055  0.31190138     0.16800
C174        C  0.07229393  0.33322340  0.21690510    -0.30600
N175        N  0.05774741  0.32262587  0.24760370     0.13600
C176        C  0.06862938  0.33447132  0.28001281    -0.30600
C177        C  0.09378754  0.42826658  0.22075579    -0.30900
N178        N  0.08396177  0.44164686  0.25244051     0.14100
H179        H  0.09028660  0.43529646  0.19148717     0.16700
C180        C  0.08914467  0.42503465  0.28357814    -0.30900
H181        H  0.08189770  0.42938355  0.31247442     0.16700
H182        H  0.06014761  0.33074010  0.30852770     0.16700
H183        H  0.17009446  0.34507684  0.19077940     0.16800
H184        H  0.06771799  0.32793595  0.18728578     0.16700
C185        C  0.18763566  0.10943587  0.03984862     0.30600
C186        C  0.18789312  0.11098820  0.46044034     0.30600
C187        C  0.19482668  0.13862463  0.02101121    -0.05600
C188        C  0.20841556  0.08964232  0.01959699    -0.06400
C189        C  0.15884326  0.10265481  0.02003626    -0.06300
C190        C  0.19471285  0.13930581  0.48073908    -0.05600
C191        C  0.20827970  0.09022797  0.47971583    -0.06400
C192        C  0.15886616  0.10318475  0.47973150    -0.06300
C193        C  0.20106677  0.16677500  0.46971513    -0.31700
N194        N  0.20630862  0.18244068  0.50149720     0.14800
C195        C  0.20165278  0.16590343  0.03295900    -0.31700
H196        H  0.20443320  0.17314042  0.06217233     0.16800
C197        C  0.22761405  0.07054888  0.46735149    -0.30600
N198        N  0.23925796  0.05803555  0.49867899     0.13600
C199        C  0.22791301  0.06960910  0.03077006    -0.30600
C200        C  0.13130659  0.09615235  0.46826119    -0.30900
N201        N  0.11520389  0.09087328  0.50001980     0.14100
H202        H  0.12364589  0.09367912  0.43914138     0.16700
C203        C  0.13145641  0.09574231  0.03154885    -0.30900
H204        H  0.12383246  0.09353388  0.06074834     0.16700
H205        H  0.23323285  0.06364116  0.05994766     0.16700
H206        H  0.20270562  0.17485101  0.44065361     0.16800
H207        H  0.23272984  0.06552726  0.43782803     0.16700
C208        C  0.18527712  0.11207665  0.28980624     0.30600
C209        C  0.18688909  0.11261047  0.21040068     0.30600
C210        C  0.19245012  0.14110975  0.27067082    -0.05600
C211        C  0.20664637  0.09240210  0.27056330    -0.06400
C212        C  0.15681451  0.10495037  0.26928464    -0.06300
C213        C  0.19303176  0.14135532  0.23034087    -0.05600
C214        C  0.20701484  0.09237774  0.23075227    -0.06400
C215        C  0.15776688  0.10458956  0.22899513    -0.06300
C216        C  0.19950375  0.16879792  0.21917388    -0.31700
N217        N  0.20405444  0.18481095  0.25091546     0.14800
C218        C  0.19893681  0.16847927  0.28245864    -0.31700
H219        H  0.20141217  0.17579609  0.31168419     0.16800
C220        C  0.22604094  0.07223072  0.21929047    -0.30600
N221        N  0.23729057  0.06020790  0.25118084     0.13600
C222        C  0.22598495  0.07254852  0.28272057    -0.30600
C223        C  0.13083580  0.09653350  0.21665714    -0.30900
N224        N  0.11386208  0.09229369  0.24777885     0.14100
H225        H  0.12391748  0.09326360  0.18734284     0.16700
C226        C  0.12904392  0.09853621  0.27985482    -0.30900
H227        H  0.12075799  0.09687148  0.30880182     0.16700
H228        H  0.23080678  0.06681885  0.31215197     0.16700
H229        H  0.20189652  0.17655566  0.19004285     0.16800
H230        H  0.23122754  0.06654522  0.19002256     0.16700
Zn231      Zn  0.27272030  0.24210500  0.46898422     1.49700
Zn232      Zn  0.26056448  0.30932678  0.47012726     1.49400
Zn233      Zn  0.23167343  0.26807898  0.03267974     1.49100
Zn234      Zn  0.29986197  0.27979562  0.03361230     1.49500
O235        O  0.26602811  0.27493516  0.00132552    -1.83600
O236        O  0.27005927  0.25305661  0.41410084    -0.74200
O237        O  0.22179947  0.32708860  0.48000108    -0.74000
O238        O  0.21484943  0.22847210  0.02451384    -0.73500
O239        O  0.26089150  0.29931285  0.41462626    -0.74200
O240        O  0.24282905  0.21182489  0.47844580    -0.73800
O241        O  0.20142613  0.29753413  0.02223049    -0.74400
O242        O  0.28866382  0.28039597  0.08834013    -0.73800
O243        O  0.29333765  0.33774892  0.47768124    -0.74500
O244        O  0.24180537  0.27125867  0.08824393    -0.73900
O245        O  0.31972858  0.31676794  0.02238697    -0.74400
O246        O  0.32887048  0.24857611  0.02738833    -0.74300
O247        O  0.31183548  0.22498627  0.47722072    -0.74100
C248        C  0.26513303  0.27627903  0.39694515     0.77700
C249        C  0.20060477  0.31961333  0.00098270     0.78200
C250        C  0.22173545  0.20889470  0.00130898     0.77200
C251        C  0.26511746  0.27641253  0.10568850     0.77500
C252        C  0.31519256  0.33734380  0.99953319     0.78700
C253        C  0.33115297  0.22910813  0.00242026     0.77700
Zn254      Zn  0.27200256  0.24285711  0.21934512     1.49700
Zn255      Zn  0.30025768  0.27999492  0.28381656     1.49400
Zn256      Zn  0.26245431  0.31050122  0.21996493     1.49100
Zn257      Zn  0.23148034  0.27019819  0.28223197     1.49500
O258        O  0.26633531  0.27604229  0.25136245    -1.83600
O259        O  0.31061845  0.22484842  0.22748250    -0.74200
O260        O  0.32199646  0.31614025  0.27265961    -0.74000
O261        O  0.26217423  0.30012264  0.16440867    -0.73500
O262        O  0.32809377  0.24814631  0.27760628    -0.74200
O263        O  0.26927317  0.25347572  0.16455242    -0.73800
O264        O  0.29672547  0.33726703  0.22695595    -0.74400
O265        O  0.20259641  0.30128040  0.27228285    -0.73800
O266        O  0.28886794  0.28006203  0.33847864    -0.74500
O267        O  0.22455026  0.33013904  0.23053818    -0.73900
O268        O  0.24172982  0.27242920  0.33785377    -0.74400
O269        O  0.21315179  0.23100396  0.27357501    -0.74300
O270        O  0.24153448  0.21330001  0.22876770    -0.74100
C271        C  0.32995274  0.22861042  0.25273713     0.77700
C272        C  0.31849678  0.33641615  0.24894611     0.78200
C273        C  0.26527776  0.27673179  0.14706687     0.77200
C274        C  0.20297393  0.32362895  0.25144776     0.77500
C275        C  0.26514733  0.27647867  0.35556375     0.78700
C276        C  0.21996888  0.21103375  0.25089152     0.77700
C277        C  0.18965748  0.11018754  0.41613742    -0.05600
C278        C  0.17325106  0.08967268  0.39651071    -0.16700
C279        C  0.17255542  0.08822744  0.35625594     0.11600
C280        C  0.18656152  0.10980538  0.33403588    -0.05500
C281        C  0.20758424  0.12583541  0.35346825    -0.16700
C282        C  0.21043363  0.12514367  0.39360105     0.11700
S283        S  0.15678005  0.05595852  0.33728185    -0.31700
S284        S  0.24353009  0.14020586  0.41170261    -0.31700
H285        H  0.24510556  0.12444735  0.44574921     0.29700
H286        H  0.17206288  0.05495672  0.30281418     0.29700
H287        H  0.16239545  0.07310688  0.41268783     0.20300
H288        H  0.22360441  0.13737475  0.33706838     0.20300
C289        C  0.18911434  0.10730196  0.08413828    -0.05600
C290        C  0.20956699  0.12396565  0.10365185    -0.16700
C291        C  0.21096153  0.12494060  0.14391787     0.11600
C292        C  0.18954327  0.11070416  0.16619077    -0.05500
C293        C  0.17411916  0.08917164  0.14696676    -0.16700
C294        C  0.17462253  0.08636291  0.10681535     0.11700
S295        S  0.24308848  0.14130576  0.16299529    -0.31700
S296        S  0.15985866  0.05331041  0.08882212    -0.31700
H297        H  0.17446544  0.05264075  0.05382922     0.29700
H298        H  0.24429607  0.12615221  0.19757755     0.29700
H299        H  0.22606580  0.13492698  0.08742632     0.20300
H300        H  0.16318516  0.07287795  0.16351029     0.20300
C301        C  0.11244155  0.37141404  0.41727560    -0.05600
C302        C  0.12315636  0.39509744  0.39673019    -0.16700
C303        C  0.12509929  0.39555322  0.35658091     0.11600
C304        C  0.11357973  0.37265562  0.33483065    -0.05500
C305        C  0.10676758  0.34762158  0.35522869    -0.16700
C306        C  0.10705041  0.34625551  0.39559947     0.11700
S307        S  0.14461474  0.42534336  0.33619191    -0.31700
S308        S  0.10217518  0.31092731  0.41543969    -0.31700
H309        H  0.11436634  0.31519965  0.45156992     0.29700
H310        H  0.15986516  0.40949093  0.30934513     0.29700
H311        H  0.13173531  0.41318998  0.41208885     0.20300
H312        H  0.10285635  0.32819962  0.33965384     0.20300
C313        C  0.11316746  0.37787926  0.08480428    -0.05600
C314        C  0.08719469  0.37839046  0.10504260    -0.16700
C315        C  0.08586040  0.37897910  0.14527659     0.11600
C316        C  0.11165688  0.37771698  0.16712089    -0.05500
C317        C  0.13728860  0.38259275  0.14673877    -0.16700
C318        C  0.13822772  0.38396612  0.10645778     0.11700
S319        S  0.05004114  0.38303878  0.16423328    -0.31700
S320        S  0.17153036  0.39663063  0.08599384    -0.31700
H321        H  0.15945074  0.41166847  0.05537492     0.29700
H322        H  0.05582049  0.38901297  0.20263348     0.29700
H323        H  0.06737246  0.37974784  0.08931838     0.20300
H324        H  0.15675705  0.38729460  0.16221620     0.20300
C325        C  0.30017371  0.99670854  0.24824195    -0.05600
C326        C  0.27309140  0.99124912  0.23265293    -0.16700
C327        C  0.25174941  0.01158647  0.23436584     0.11600
C328        C  0.25781281  0.03809610  0.25133194    -0.05500
C329        C  0.28492994  0.04364708  0.26667243    -0.16700
C330        C  0.30632749  0.02327109  0.26494341     0.11700
S331        S  0.21701302  0.00235397  0.21550017    -0.31700
S332        S  0.34191038  0.03185353  0.28160649    -0.31700
H333        H  0.33593829  0.55917713  0.29489488     0.29700
H334        H  0.20148348  0.01934214  0.24096123     0.29700
H335        H  0.26836293  0.47071557  0.22002282     0.20300
H336        H  0.28940076  0.06429833  0.27889923     0.20300
C337        C  0.26042969  0.03643073  0.49778019    -0.05600
C338        C  0.28739201  0.04293996  0.48231168    -0.16700
C339        C  0.30910330  0.02287046  0.48235315     0.11600
C340        C  0.30354484  0.99546471  0.99730841    -0.05500
C341        C  0.27656018  0.98894841  0.01274411    -0.16700
C342        C  0.25485183  0.00901991  0.01271423     0.11700
S343        S  0.34372576  0.03370831  0.46448630    -0.31700
S344        S  0.22026640  0.99824966  0.03080997    -0.31700
H345        H  0.20440973  0.01635569  0.00701383     0.29700
H346        H  0.35952315  0.51606426  0.48905048     0.29700
H347        H  0.29167627  0.06406035  0.47111486     0.20300
H348        H  0.27227170  0.46788030  0.02398156     0.20300
C349        C  0.37575965  0.41894523  0.41362936    -0.05600
C350        C  0.34952019  0.42164228  0.39450771    -0.16700
C351        C  0.34723865  0.42115526  0.35432300     0.11600
C352        C  0.37255050  0.42045420  0.33136307    -0.05500
C353        C  0.39799122  0.41337776  0.35058827    -0.16700
C354        C  0.39951713  0.41112219  0.39076953     0.11700
S355        S  0.31082826  0.41899757  0.33686928    -0.31700
S356        S  0.43107224  0.39453291  0.40966601    -0.31700
H357        H  0.41655066  0.37911225  0.43851104     0.29700
H358        H  0.31576559  0.40858637  0.30005921     0.29700
H359        H  0.33007955  0.42271925  0.41122715     0.20300
H360        H  0.41671239  0.40797002  0.33406563     0.20300
C361        C  0.37784330  0.42162162  0.08118398    -0.05600
C362        C  0.37544610  0.44776291  0.10007540    -0.16700
C363        C  0.37533325  0.45010501  0.14026728     0.11600
C364        C  0.37614014  0.42500020  0.16346991    -0.05500
C365        C  0.38309487  0.39963483  0.14440580    -0.16700
C366        C  0.38527255  0.39795706  0.10428615     0.11700
S367        S  0.37583740  0.48640836  0.15724289    -0.31700
S368        S  0.40085780  0.36600603  0.08571352    -0.31700
H369        H  0.41674238  0.37975546  0.05665967     0.29700
H370        H  0.38249412  0.48235883  0.19586719     0.29700
H371        H  0.37482215  0.46708186  0.08320541     0.20300
H372        H  0.38852453  0.38098163  0.16092957     0.20300
C373        C  0.03348383  0.30362852  0.24586150    -0.05600
C374        C  0.00704697  0.31233672  0.26045914    -0.16700
C375        C  0.98281549  0.29450938  0.25876138     0.11600
C376        C  0.98513114  0.26720749  0.24276790    -0.05500
C377        C  0.01136605  0.25883477  0.22737224    -0.16700
C378        C  0.03552498  0.27656829  0.22905343     0.11700
S379        S  0.44945507  0.30783341  0.27655901    -0.31700
S380        S  0.06869980  0.26288187  0.21125263    -0.31700
H381        H  0.08628452  0.27734170  0.23765012     0.29700
H382        H  0.43171889  0.29003989  0.25435609     0.29700
H383        H  0.00527856  0.33330147  0.27274413     0.20300
H384        H  0.01328158  0.23773671  0.21554460     0.20300
C385        C  0.98398228  0.26890151  0.50509365    -0.05600
C386        C  0.01087576  0.26306277  0.02061596    -0.16700
C387        C  0.03281519  0.28343934  0.02026103     0.11600
C388        C  0.02762728  0.31073912  0.00517337    -0.05500
C389        C  0.00058491  0.31676091  0.49004537    -0.16700
C390        C  0.97862201  0.29618123  0.49014573     0.11700
S391        S  0.06742196  0.27281070  0.03725298    -0.31700
S392        S  0.44418813  0.30607604  0.47176707    -0.31700
H393        H  0.42816491  0.28577803  0.49261620     0.29700
H394        H  0.08307447  0.28885663  0.01008310     0.29700
H395        H  0.01505121  0.24201215  0.03172338     0.20300
H396        H  0.99655471  0.33771995  0.47855480     0.20300
C397        C  0.42307706  0.18244736  0.41808393    -0.05600
C398        C  0.44828429  0.18960521  0.39785913    -0.16700
C399        C  0.44955022  0.18931868  0.35726310     0.11600
C400        C  0.42423612  0.18432215  0.33563633    -0.05500
C401        C  0.40046897  0.17338522  0.35598305    -0.16700
C402        C  0.40023919  0.17077185  0.39607982     0.11700
S403        S  0.48416264  0.19187734  0.33434403    -0.31700
S404        S  0.37186840  0.14876592  0.41576275    -0.31700
H405        H  0.38901419  0.13546525  0.44340299     0.29700
H406        H  0.50020866  0.19803741  0.36749388     0.29700
H407        H  0.46750668  0.19408710  0.41403265     0.20300
H408        H  0.38239366  0.16469024  0.34042935     0.20300
C409        C  0.42390494  0.18060129  0.08590364    -0.05600
C410        C  0.39929429  0.17061665  0.10537596    -0.16700
C411        C  0.39793116  0.16872128  0.14557215     0.11600
C412        C  0.42085982  0.17952465  0.16809645    -0.05500
C413        C  0.44677882  0.18499561  0.14881808    -0.16700
C414        C  0.44896221  0.18486907  0.10860211     0.11700
S415        S  0.36827205  0.14835305  0.16485224    -0.31700
S416        S  0.48492842  0.18924496  0.09020235    -0.31700
H417        H  0.48106246  0.17669882  0.05429684     0.29700
H418        H  0.38426804  0.13540175  0.19408475     0.29700
H419        H  0.38123299  0.16261973  0.08912845     0.20300
H420        H  0.46597845  0.18881229  0.16544976     0.20300
C421        C  0.42304669  0.18283449  0.54162211     0.30600
C422        C  0.42280080  0.18381872  0.96248500     0.30600
C423        C  0.39335967  0.18630856  0.52269511    -0.05600
C424        C  0.43936106  0.20775227  0.52249881    -0.06400
C425        C  0.43480634  0.15657899  0.52142662    -0.06300
C426        C  0.39326740  0.18671321  0.98208199    -0.05600
C427        C  0.43961676  0.20821528  0.98227035    -0.06400
C428        C  0.43530991  0.15743819  0.98160192    -0.06300
C429        C  0.37004550  0.20271853  0.97109308    -0.31700
N430        N  0.35583223  0.21136547  0.50262774     0.14800
C431        C  0.37051611  0.20279217  0.53397228    -0.31700
H432        H  0.36623250  0.20994514  0.56289906     0.16800
C433        C  0.45461867  0.23244040  0.97138065    -0.30600
N434        N  0.46314590  0.24636620  0.00359227     0.13600
C435        C  0.45342092  0.23185830  0.53476757    -0.30600
C436        C  0.44985629  0.13389338  0.96938961    -0.30900
N437        N  0.45737423  0.11839729  0.50070711     0.14100
H438        H  0.45525884  0.12879503  0.93999493     0.16700
C439        C  0.44806255  0.13188143  0.53265769    -0.30900
H440        H  0.45233436  0.12522690  0.56189604     0.16700
H441        H  0.45690170  0.23829947  0.56420280     0.16700
H442        H  0.36552101  0.20999115  0.94220232     0.16800
H443        H  0.45954832  0.23928066  0.94236527     0.16700
C444        C  0.42031611  0.18248122  0.71223571     0.30600
C445        C  0.42289744  0.18519520  0.79117300     0.30600
C446        C  0.43385632  0.15735400  0.73271624    -0.05600
C447        C  0.43686377  0.20820511  0.72919457    -0.06400
C448        C  0.39127093  0.18525833  0.73273158    -0.06300
C449        C  0.43551997  0.15872763  0.77242373    -0.05600
C450        C  0.43782852  0.20982772  0.76931217    -0.06400
C451        C  0.39255728  0.18669755  0.77332462    -0.06300
C452        C  0.45055163  0.13527336  0.78441470    -0.31700
N453        N  0.45730179  0.11967651  0.75299918     0.14800
C454        C  0.44705700  0.13289766  0.72131997    -0.31700
H455        H  0.45023424  0.12594546  0.69203907     0.16800
C456        C  0.45300780  0.23422192  0.77826508    -0.30600
N457        N  0.46228006  0.24660036  0.74512495     0.13600
C458        C  0.45223713  0.23118269  0.71508892    -0.30600
C459        C  0.36980671  0.20333708  0.78435200    -0.30900
N460        N  0.35424927  0.21046958  0.75314776     0.14100
H461        H  0.36637594  0.21187006  0.81279139     0.16700
C462        C  0.36768045  0.20066082  0.72168988    -0.30900
H463        H  0.36256724  0.20706936  0.69261103     0.16700
H464        H  0.45687177  0.23593123  0.68525251     0.16700
H465        H  0.45669082  0.13025099  0.81362865     0.16800
H466        H  0.45838323  0.24166371  0.80674110     0.16700
C467        C  0.37614206  0.42076180  0.95793742     0.30600
C468        C  0.37619610  0.42109442  0.53687000     0.30600
C469        C  0.40481975  0.42866036  0.97715914    -0.05600
C470        C  0.35609435  0.44232646  0.97704237    -0.06400
C471        C  0.36692595  0.39283805  0.97760831    -0.06300
C472        C  0.40474193  0.42874070  0.51758234    -0.05600
C473        C  0.35560761  0.44191911  0.51721706    -0.06400
C474        C  0.36698420  0.39300989  0.51797105    -0.06300
C475        C  0.42526886  0.44831355  0.52892196    -0.31700
N476        N  0.43822533  0.45934324  0.49746923     0.14800
C477        C  0.42552992  0.44827178  0.96595928    -0.31700
H478        H  0.42921421  0.45592832  0.93695819     0.16800
C479        C  0.33542171  0.46107812  0.52867714    -0.30600
N480        N  0.32488630  0.47401834  0.49700277     0.13600
C481        C  0.33726780  0.46289274  0.96533604    -0.30600
C482        C  0.34695704  0.37296120  0.52961513    -0.30900
N483        N  0.33556956  0.36021957  0.49840809     0.14100
H484        H  0.33948945  0.36947328  0.55873964     0.16700
C485        C  0.34675116  0.37269804  0.96661192    -0.30900
H486        H  0.33951631  0.36860458  0.93760313     0.16700
H487        H  0.33268251  0.46934804  0.93613812     0.16700
H488        H  0.42901447  0.45559871  0.55795464     0.16800
H489        H  0.32872416  0.46548966  0.55778583     0.16700
C490        C  0.37387506  0.42428788  0.70784222     0.30600
C491        C  0.37323727  0.42272953  0.78702127     0.30600
C492        C  0.40196690  0.43310963  0.72803919    -0.05600
C493        C  0.35145248  0.44277994  0.72742791    -0.06400
C494        C  0.36670394  0.39516506  0.72652905    -0.06300
C495        C  0.40152282  0.43256005  0.76836554    -0.05600
C496        C  0.35229342  0.44317712  0.76751168    -0.06400
C497        C  0.36752078  0.39425368  0.76687602    -0.06300
C498        C  0.42275660  0.45106490  0.78048252    -0.31700
N499        N  0.43646264  0.46190416  0.74937255     0.14800
C500        C  0.42399631  0.45133321  0.71732127    -0.31700
H501        H  0.42913211  0.45816162  0.68836236     0.16800
C502        C  0.33423523  0.46417396  0.77914816    -0.30600
N503        N  0.32094253  0.47477690  0.74777926     0.13600
C504        C  0.33058805  0.46133519  0.71612151    -0.30600
C505        C  0.35169226  0.37089871  0.77857116    -0.30900
N506        N  0.33951657  0.35878714  0.74741818     0.14100
H507        H  0.34612346  0.36554110  0.80795649     0.16700
C508        C  0.34762164  0.37382631  0.71586420    -0.30900
H509        H  0.33858015  0.37085544  0.68751670     0.16700
H510        H  0.32365215  0.46567074  0.68705527     0.16700
H511        H  0.42633822  0.45813612  0.80967095     0.16800
H512        H  0.33098317  0.47143207  0.80824862     0.16700
Zn513      Zn  0.48731931  0.03423335  0.53013781     1.49700
Zn514      Zn  0.02872878  0.06557749  0.96977299     1.49400
Zn515      Zn  0.05556303  0.02431581  0.53250717     1.49100
Zn516      Zn  0.01885162  0.49752390  0.96687468     1.49500
O517        O  0.02248662  0.03061691  0.49990107    -1.83600
O518        O  0.46806740  0.07214157  0.52039613    -0.74200
O519        O  0.06834539  0.08287322  0.97829288    -0.74000
O520        O  0.04397646  0.02699652  0.58707434    -0.73500
O521        O  0.99787444  0.09437891  0.98013348    -0.74200
O522        O  0.99695468  0.03351199  0.58601220    -0.73800
O523        O  0.08603054  0.05411772  0.52284214    -0.74400
O524        O  0.05032843  0.46912373  0.97393311    -0.73800
O525        O  0.02650250  0.05664798  0.91407420    -0.74500
O526        O  0.07327768  0.48560441  0.52499887    -0.73900
O527        O  0.01974461  0.00980247  0.91303467    -0.74400
O528        O  0.48174123  0.47675408  0.97476645    -0.74300
O529        O  0.45987339  0.00104895  0.52047605    -0.74100
C530        C  0.47515250  0.09385550  0.50033501     0.77700
C531        C  0.08854309  0.07554360  0.50057287     0.78200
C532        C  0.02031020  0.03059180  0.60411872     0.77200
C533        C  0.06959792  0.46668321  0.49942139     0.77500
C534        C  0.02292976  0.03350343  0.89607167     0.78700
C535        C  0.46078124  0.48012371  0.49741199     0.77700
Zn536      Zn  0.01678538  0.49868153  0.78351877     1.49700
Zn537      Zn  0.48710324  0.03651899  0.71947834     1.49400
Zn538      Zn  0.02845609  0.06614330  0.78093691     1.49100
Zn539      Zn  0.05482714  0.02492218  0.71802059     1.49500
O540        O  0.02171111  0.03176551  0.75035201    -1.83600
O541        O  0.47940740  0.47874182  0.77436804    -0.74200
O542        O  0.46824268  0.07430838  0.73078820    -0.75600
O543        O  0.02748614  0.05675636  0.83657406    -0.73500
O544        O  0.45922769  0.00349801  0.72746613    -0.74200
O545        O  0.01785016  0.01039139  0.83752731    -0.73800
O546        O  0.99748077  0.09490949  0.77296390    -0.74400
O547        O  0.08502235  0.05517729  0.72588029    -0.73800
O548        O  0.99705137  0.03600255  0.66358767    -0.74500
O549        O  0.06741854  0.08378310  0.77036201    -0.73900
O550        O  0.04346798  0.02640299  0.66331763    -0.74400
O551        O  0.07225477  0.48617502  0.72719682    -0.74300
O552        O  0.04742267  0.46954152  0.77686996    -0.74100
C553        C  0.45925848  0.48240134  0.75049714     0.77700
C554        C  0.47498240  0.09511950  0.75245861     0.78200
C555        C  0.02267104  0.03369213  0.85455182     0.77200
C556        C  0.08738921  0.07674653  0.74760755     0.77500
C557        C  0.02019715  0.03111163  0.64585680     0.78700
C558        C  0.06729674  0.46695651  0.75228733     0.77700
C559        C  0.11114701  0.37321682  0.96157441     0.30600
C560        C  0.11242546  0.37526367  0.54059028     0.30600
C561        C  0.10984089  0.40319134  0.97936404    -0.05600
C562        C  0.08577746  0.35863294  0.98238259    -0.06400
C563        C  0.13752583  0.36053535  0.98120889    -0.06300
C564        C  0.11100135  0.40420214  0.51983170    -0.05600
C565        C  0.08690417  0.35883821  0.52252219    -0.06400
C566        C  0.13761669  0.36046578  0.52113378    -0.06300
C567        C  0.09725048  0.42861889  0.53088384    -0.31700
N568        N  0.08749248  0.44220022  0.99930660     0.14800
C569        C  0.09392163  0.42640012  0.96818975    -0.31700
H570        H  0.08538461  0.43010066  0.93972215     0.16800
C571        C  0.06477087  0.34154210  0.53529933    -0.30600
N572        N  0.04969012  0.33221367  0.00445691     0.13600
C573        C  0.06170183  0.34325686  0.97214598    -0.30600
C574        C  0.16043680  0.34418247  0.53254635    -0.30900
N575        N  0.17530523  0.33644514  0.00089909     0.14100
H576        H  0.16587426  0.33829015  0.56171486     0.16700
C577        C  0.16156650  0.34633257  0.96931764    -0.30900
H578        H  0.16775602  0.34219789  0.93991776     0.16700
H579        H  0.05432015  0.33890913  0.94329400     0.16700
H580        H  0.09160752  0.43415499  0.56005275     0.16800
H581        H  0.06068372  0.33484224  0.56460405     0.16700
C582        C  0.11203139  0.37295922  0.79052642     0.30600
C583        C  0.11273346  0.37496852  0.71133523     0.30600
C584        C  0.14068203  0.36587751  0.77117852    -0.05600
C585        C  0.09108010  0.35241187  0.76995011    -0.06400
C586        C  0.10370256  0.40130288  0.77183815    -0.06300
C587        C  0.14133166  0.36704276  0.73088147    -0.05600
C588        C  0.09230212  0.35270830  0.72979070    -0.06400
C589        C  0.10515044  0.40264186  0.73195922    -0.06300
C590        C  0.16482074  0.35139950  0.71975028    -0.31700
N591        N  0.17855928  0.34180230  0.75146557     0.14800
C592        C  0.16347482  0.34962109  0.78284366    -0.31700
H593        H  0.16773219  0.34253957  0.81190092     0.16800
C594        C  0.07228872  0.33322086  0.71690294    -0.30600
N595        N  0.05774188  0.32262255  0.74760065     0.13600
C596        C  0.06862301  0.33446726  0.78001067    -0.30600
C597        C  0.09378754  0.42826460  0.72075943    -0.30900
N598        N  0.08396395  0.44164527  0.75244494     0.14100
H599        H  0.09028693  0.43529536  0.69149126     0.16700
C600        C  0.08914516  0.42503210  0.78358206    -0.30900
H601        H  0.08189907  0.42938133  0.81247871     0.16700
H602        H  0.06014018  0.33073561  0.80852492     0.16700
H603        H  0.17008606  0.34507100  0.69077863     0.16800
H604        H  0.06771332  0.32793411  0.68728332     0.16700
C605        C  0.18762678  0.10944639  0.53984838     0.30600
C606        C  0.18789287  0.11098072  0.96044093     0.30600
C607        C  0.19481784  0.13863452  0.52101090    -0.05600
C608        C  0.20841105  0.08965453  0.51960269    -0.06400
C609        C  0.15883724  0.10266315  0.52003029    -0.06300
C610        C  0.19471803  0.13929696  0.98073971    -0.05600
C611        C  0.20827858  0.09021743  0.97971027    -0.06400
C612        C  0.15886744  0.10317902  0.97973741    -0.06300
C613        C  0.20107241  0.16676626  0.96971534    -0.31700
N614        N  0.20631581  0.18243194  0.00149713     0.14800
C615        C  0.20164379  0.16591283  0.53295911    -0.31700
H616        H  0.20442437  0.17314930  0.56217275     0.16800
C617        C  0.22760507  0.07053395  0.96733801    -0.30600
N618        N  0.23925042  0.05801595  0.99866059     0.13600
C619        C  0.22791208  0.06962733  0.53078365    -0.30600
C620        C  0.13130673  0.09614725  0.96827215    -0.30900
N621        N  0.11520804  0.09086432  0.00003329     0.14100
H622        H  0.12364247  0.09367693  0.93915362     0.16700
C623        C  0.13144848  0.09575465  0.53153780    -0.30900
H624        H  0.12382056  0.09355081  0.56073595     0.16700
H625        H  0.23322875  0.06366248  0.55996343     0.16700
H626        H  0.20270957  0.17484220  0.94065369     0.16800
H627        H  0.23271473  0.06551264  0.93781259     0.16700
C628        C  0.18527752  0.11207004  0.78980749     0.30600
C629        C  0.18688811  0.11260630  0.71040213     0.30600
C630        C  0.19245691  0.14110233  0.77067367    -0.05600
C631        C  0.20664173  0.09239078  0.77056267    -0.06400
C632        C  0.15681301  0.10495120  0.76928652    -0.06300
C633        C  0.19303785  0.14134893  0.73034388    -0.05600
C634        C  0.20700959  0.09236772  0.73075148    -0.06400
C635        C  0.15776456  0.10459175  0.72899705    -0.06300
C636        C  0.19951121  0.16879133  0.71917758    -0.31700
N637        N  0.20406264  0.18480367  0.75091949     0.14800
C638        C  0.19894531  0.16847140  0.78246241    -0.31700
H639        H  0.20142005  0.17578777  0.81168828     0.16800
C640        C  0.22603297  0.07221834  0.71928804    -0.30600
N641        N  0.23728183  0.06019325  0.75117747     0.13600
C642        C  0.22597781  0.07253407  0.78271823    -0.30600
C643        C  0.13083194  0.09654120  0.71665946    -0.30900
N644        N  0.11385826  0.09230266  0.74778131     0.14100
H645        H  0.12391264  0.09327264  0.68734523     0.16700
C646        C  0.12904158  0.09854156  0.77985721    -0.30900
H647        H  0.12075607  0.09687617  0.80880434     0.16700
H648        H  0.23080021  0.06680376  0.81214914     0.16700
H649        H  0.20190263  0.17654972  0.69004660     0.16800
H650        H  0.23121934  0.06653392  0.69001969     0.16700
Zn651      Zn  0.27272011  0.24210659  0.96898384     1.49700
Zn652      Zn  0.26056261  0.30932914  0.97013025     1.49400
Zn653      Zn  0.23167409  0.26808363  0.53267916     1.49100
Zn654      Zn  0.29986269  0.27979066  0.53361249     1.49500
O655        O  0.26602915  0.27493424  0.50132462    -1.83600
O656        O  0.27005735  0.25306074  0.91410100    -0.74200
O657        O  0.22179489  0.32708570  0.98000266    -0.74000
O658        O  0.21484648  0.22847965  0.52451304    -0.73500
O659        O  0.26089182  0.29931751  0.91462846    -0.74200
O660        O  0.24283172  0.21182188  0.97844366    -0.73800
O661        O  0.20142968  0.29754074  0.52223216    -0.74400
O662        O  0.28866429  0.28039440  0.58834076    -0.73800
O663        O  0.29333318  0.33775534  0.97768585    -0.74500
O664        O  0.24180459  0.27126469  0.58824270    -0.73900
O665        O  0.31972998  0.31676083  0.52238558    -0.74400
O666        O  0.32887054  0.24856952  0.52738810    -0.74300
O667        O  0.31183678  0.22499095  0.97722150    -0.74100
C668        C  0.26513198  0.27628385  0.89694632     0.77700
C669        C  0.20060976  0.31961943  0.50098374     0.78200
C670        C  0.22173140  0.20890113  0.50130951     0.77200
C671        C  0.26511670  0.27641605  0.60568815     0.77500
C672        C  0.31519606  0.33733609  0.49953028     0.78700
C673        C  0.33115209  0.22910194  0.50241910     0.77700
Zn674      Zn  0.27199959  0.24286115  0.71934411     1.49700
Zn675      Zn  0.30025285  0.27999953  0.78381590     1.49400
Zn676      Zn  0.26244668  0.31050329  0.71996568     1.49100
Zn677      Zn  0.23147727  0.27019496  0.78223432     1.49500
O678        O  0.26633039  0.27604445  0.75136295    -1.83600
O679        O  0.31061611  0.22485582  0.72747980    -0.74200
O680        O  0.32199029  0.31614464  0.77265541    -0.74000
O681        O  0.26216983  0.30012702  0.66440802    -0.73500
O682        O  0.32808870  0.24815026  0.77760820    -0.74200
O683        O  0.26927051  0.25348047  0.66455243    -0.73800
O684        O  0.29671357  0.33727406  0.72695987    -0.74400
O685        O  0.20258900  0.30127231  0.77228258    -0.73800
O686        O  0.28886466  0.28007086  0.83847847    -0.74500
O687        O  0.22454028  0.33013387  0.73053859    -0.73900
O688        O  0.24172788  0.27242933  0.83785595    -0.74400
O689        O  0.21315452  0.23099745  0.77358049    -0.74300
O690        O  0.24153574  0.21329980  0.72876699    -0.74100
C691        C  0.32994898  0.22861614  0.75273661     0.77700
C692        C  0.31848694  0.33642254  0.74894623     0.78200
C693        C  0.26527532  0.27673631  0.64706648     0.77200
C694        C  0.20296447  0.32362076  0.75144725     0.77500
C695        C  0.26514507  0.27648391  0.85556480     0.78700
C696        C  0.21997281  0.21102905  0.75089476     0.77700
C697        C  0.18965469  0.11018109  0.91613813    -0.05600
C698        C  0.17324411  0.08966942  0.89651140    -0.16700
C699        C  0.17254965  0.08822327  0.85625669     0.11600
C700        C  0.18656133  0.10979773  0.83403683    -0.05500
C701        C  0.20758687  0.12582368  0.85346952    -0.16700
C702        C  0.21043498  0.12513203  0.89360232     0.11700
S703        S  0.15676874  0.05595681  0.83728283    -0.31700
S704        S  0.24353351  0.14018928  0.91170492    -0.31700
H705        H  0.24510738  0.12443138  0.94575204     0.29700
H706        H  0.17205070  0.05495291  0.80281460     0.29700
H707        H  0.16238525  0.07310567  0.91268826     0.20300
H708        H  0.22360932  0.13736015  0.83706998     0.20300
C709        C  0.18910216  0.10731255  0.58413830    -0.05600
C710        C  0.20955874  0.12397102  0.60365295    -0.16700
C711        C  0.21095808  0.12493883  0.64391910     0.11600
C712        C  0.18953957  0.11070306  0.66619185    -0.05500
C713        C  0.17410922  0.08917647  0.64696518    -0.16700
C714        C  0.17460855  0.08637309  0.60681307     0.11700
S715        S  0.24309111  0.14129240  0.66299615    -0.31700
S716        S  0.15983843  0.05332491  0.58881489    -0.31700
H717        H  0.17445910  0.05264929  0.55383248     0.29700
H718        H  0.24429673  0.12613475  0.69757528     0.29700
H719        H  0.22605735  0.13493277  0.58742747     0.20300
H720        H  0.16317385  0.07288249  0.66350665     0.20300
C721        C  0.11243639  0.37141222  0.91727583    -0.05600
C722        C  0.12315503  0.39509323  0.89672897    -0.16700
C723        C  0.12509864  0.39554652  0.85657980     0.11600
C724        C  0.11357428  0.37265053  0.83483127    -0.05500
C725        C  0.10675727  0.34761848  0.85523067    -0.16700
C726        C  0.10704079  0.34625369  0.89560140     0.11700
S727        S  0.14462222  0.42532987  0.83618721    -0.31700
S728        S  0.10216150  0.31092642  0.91544330    -0.31700
H729        H  0.11435399  0.31519786  0.95157291     0.29700
H730        H  0.15988540  0.40946555  0.80936657     0.29700
H731        H  0.13173707  0.41318494  0.91208628     0.20300
H732        H  0.10284298  0.32819663  0.83965721     0.20300
C733        C  0.11316595  0.37788024  0.58480539    -0.05600
C734        C  0.08719230  0.37838889  0.60504223    -0.16700
C735        C  0.08585684  0.37897735  0.64527635     0.11600
C736        C  0.11165279  0.37771584  0.66712186    -0.05500
C737        C  0.13728475  0.38259467  0.64674143    -0.16700
C738        C  0.13822455  0.38397008  0.60646050     0.11700
S739        S  0.05003725  0.38303639  0.66423220    -0.31700
S740        S  0.17152464  0.39664185  0.58599772    -0.31700
H741        H  0.15944003  0.41168743  0.55538927     0.29700
H742        H  0.05581709  0.38901439  0.70263126     0.29700
H743        H  0.06737045  0.37974453  0.58931684     0.20300
H744        H  0.15675252  0.38729677  0.66222039     0.20300
C745        C  0.30016270  0.99669101  0.74823800    -0.05600
C746        C  0.27307733  0.99122951  0.73266001    -0.16700
C747        C  0.25173678  0.01156864  0.73437117     0.11600
C748        C  0.25780408  0.03808119  0.75132686    -0.05500
C749        C  0.28492502  0.04363462  0.76665429    -0.16700
C750        C  0.30632167  0.02325753  0.76492405     0.11700
S751        S  0.21699804  0.00233546  0.71551399    -0.31700
S752        S  0.34190979  0.03184205  0.78156525    -0.31700
H753        H  0.33592441  0.55918016  0.79494571     0.29700
H754        H  0.20147170  0.01933130  0.74096893     0.29700
H755        H  0.26837153  0.47072764  0.72001691     0.20300
H756        H  0.28939913  0.06428812  0.77887202     0.20300
C757        C  0.26042016  0.03640979  0.99775216    -0.05600
C758        C  0.28737805  0.04291716  0.98226874    -0.16700
C759        C  0.30909024  0.02284905  0.98230772     0.11600
C760        C  0.30355184  0.99548234  0.49733675    -0.05500
C761        C  0.27656470  0.98896587  0.51276438    -0.16700
C762        C  0.25485818  0.00903951  0.51273621     0.11700
S763        S  0.34370586  0.03368475  0.96441457    -0.31700
S764        S  0.22027124  0.99827057  0.53082816    -0.31700
H765        H  0.20441671  0.01637478  0.50702688     0.29700
H766        H  0.35953497  0.51607824  0.98909471     0.29700
H767        H  0.29165863  0.06403571  0.97106291     0.20300
H768        H  0.27226201  0.46785993  0.52395512     0.20300
C769        C  0.37575620  0.41895737  0.91363225    -0.05600
C770        C  0.34951745  0.42165989  0.89451033    -0.16700
C771        C  0.34723555  0.42116941  0.85432531     0.11600
C772        C  0.37254687  0.42046111  0.83136477    -0.05500
C773        C  0.39798614  0.41338132  0.85059098    -0.16700
C774        C  0.39951169  0.41112774  0.89077259     0.11700
S775        S  0.31082496  0.41901574  0.83687196    -0.31700
S776        S  0.43106406  0.39453386  0.90967011    -0.31700
H777        H  0.41653979  0.37911484  0.93851426     0.29700
H778        H  0.31576140  0.40860332  0.80006229     0.29700
H779        H  0.33007730  0.42274268  0.91122982     0.20300
H780        H  0.41670626  0.40796926  0.83406898     0.20300
C781        C  0.37783871  0.42161789  0.58118158    -0.05600
C782        C  0.37543767  0.44775980  0.60007040    -0.16700
C783        C  0.37532804  0.45010464  0.64026228     0.11600
C784        C  0.37613706  0.42500164  0.66346847    -0.05500
C785        C  0.38309435  0.39963581  0.64440679    -0.16700
C786        C  0.38527253  0.39795612  0.60428671     0.11700
S787        S  0.37583726  0.48640905  0.65723306    -0.31700
S788        S  0.40086444  0.36600745  0.58571677    -0.31700
H789        H  0.41674766  0.37975869  0.55666309     0.29700
H790        H  0.38250165  0.48236082  0.69585517     0.29700
H791        H  0.37481045  0.46707754  0.58319813     0.20300
H792        H  0.38852548  0.38098422  0.66093317     0.20300
C793        C  0.03347693  0.30362738  0.74585655    -0.05600
C794        C  0.00704126  0.31233697  0.76045616    -0.16700
C795        C  0.98280849  0.29451162  0.75875826     0.11600
C796        C  0.98512167  0.26721035  0.74276210    -0.05500
C797        C  0.01135518  0.25883685  0.72736282    -0.16700
C798        C  0.03551549  0.27656823  0.72904485     0.11700
S799        S  0.44945092  0.30782893  0.77656187    -0.31700
S800        S  0.06868885  0.26287981  0.71124215    -0.31700
H801        H  0.08627456  0.27733524  0.73764284     0.29700
H802        H  0.43171386  0.29003426  0.75436195     0.29700
H803        H  0.00527492  0.33330123  0.77274350     0.20300
H804        H  0.01326879  0.23773934  0.71553285     0.20300
C805        C  0.98397759  0.26890337  0.00509205    -0.05600
C806        C  0.01088287  0.26305702  0.52060719    -0.16700
C807        C  0.03282339  0.28343243  0.52025003     0.11600
C808        C  0.02763390  0.31073439  0.50517127    -0.05500
C809        C  0.00058051  0.31676185  0.99003692    -0.16700
C810        C  0.97861847  0.29618104  0.99013594     0.11700
S811        S  0.06743275  0.27280059  0.53722886    -0.31700
S812        S  0.44418888  0.30607671  0.97175310    -0.31700
H813        H  0.42816850  0.28578056  0.99260954     0.29700
H814        H  0.08308241  0.28885494  0.51006512     0.29700
H815        H  0.01505891  0.24200467  0.53170810     0.20300
H816        H  0.99655108  0.33771916  0.97853951     0.20300
C817        C  0.42307406  0.18245113  0.91808343    -0.05600
C818        C  0.44828063  0.18960679  0.89785622    -0.16700
C819        C  0.44954449  0.18932018  0.85726036     0.11600
C820        C  0.42422960  0.18432315  0.83563556    -0.05500
C821        C  0.40046211  0.17338959  0.85598454    -0.16700
C822        C  0.40023342  0.17077812  0.89608157     0.11700
S823        S  0.48415629  0.19187761  0.83433995    -0.31700
S824        S  0.37185949  0.14877768  0.91576749    -0.31700
H825        H  0.38900369  0.13547623  0.94340889     0.29700
H826        H  0.50019283  0.19810134  0.86747668     0.29700
H827        H  0.46750459  0.19408601  0.91402786     0.20300
H828        H  0.38238531  0.16469591  0.84043248     0.20300
C829        C  0.42389995  0.18059281  0.58590391    -0.05600
C830        C  0.39928796  0.17061126  0.60537584    -0.16700
C831        C  0.39792316  0.16871883  0.64557206     0.11600
C832        C  0.42085259  0.17952044  0.66809651    -0.05500
C833        C  0.44677256  0.18498819  0.64881890    -0.16700
C834        C  0.44895688  0.18486055  0.60860312     0.11700
S835        S  0.36825956  0.14835732  0.66485243    -0.31700
S836        S  0.48492350  0.18923779  0.59020485    -0.31700
H837        H  0.48105876  0.17669575  0.55429658     0.29700
H838        H  0.38425250  0.13540403  0.69408640     0.29700
H839        H  0.38122641  0.16261499  0.58912830     0.20300
H840        H  0.46597204  0.18880432  0.66545116     0.20300
C841        C  0.42302932  0.68282296  0.04161076     0.30600
C842        C  0.42278498  0.68380695  0.46247310     0.30600
C843        C  0.39334085  0.68628760  0.02268505    -0.05600
C844        C  0.43933544  0.70774575  0.02248821    -0.06400
C845        C  0.43479551  0.65657168  0.02141468    -0.06300
C846        C  0.39324922  0.68669175  0.48206684    -0.05600
C847        C  0.43959239  0.70820690  0.48226301    -0.06400
C848        C  0.43529922  0.65742866  0.48158868    -0.06300
C849        C  0.37002760  0.70269707  0.47107787    -0.31700
N850        N  0.35581191  0.71134156  0.00261882     0.14800
C851        C  0.37049611  0.70276879  0.03396279    -0.31700
H852        H  0.36621399  0.70992377  0.06288908     0.16800
C853        C  0.45458944  0.73243592  0.47137797    -0.30600
N854        N  0.46311269  0.74636076  0.50359223     0.13600
C855        C  0.45339154  0.73185309  0.03475871    -0.30600
C856        C  0.44984682  0.63388512  0.46937585    -0.30900
N857        N  0.45736300  0.61839123  0.00069506     0.14100
H858        H  0.45524996  0.62878738  0.43998113     0.16700
C859        C  0.44805161  0.63187468  0.03264585    -0.30900
H860        H  0.45232226  0.62521928  0.06188418     0.16700
H861        H  0.45687450  0.73829141  0.06419464     0.16700
H862        H  0.36550572  0.70997317  0.44218795     0.16800
H863        H  0.45952023  0.73927862  0.44236396     0.16700
C864        C  0.42031500  0.68248082  0.21222395     0.30600
C865        C  0.42290069  0.68519814  0.29116085     0.30600
C866        C  0.43386060  0.65735686  0.23270488    -0.05600
C867        C  0.43686066  0.70820761  0.22917870    -0.06400
C868        C  0.39127084  0.68525487  0.23272298    -0.06300
C869        C  0.43552674  0.65873228  0.27241204    -0.05600
C870        C  0.43782756  0.70983239  0.26929660    -0.06400
C871        C  0.39255975  0.68669552  0.27331515    -0.06300
C872        C  0.45056200  0.63528038  0.28440304    -0.31700
N873        N  0.45731150  0.61968312  0.25298772     0.14800
C874        C  0.44706299  0.63290163  0.22130883    -0.31700
H875        H  0.45023745  0.62594760  0.19202819     0.16800
C876        C  0.45300563  0.73422854  0.27824462    -0.30600
N877        N  0.46227557  0.74660549  0.24510202     0.13600
C878        C  0.45223227  0.73118493  0.21506878    -0.30600
C879        C  0.36980779  0.70333191  0.28434553    -0.30900
N880        N  0.35424747  0.71046233  0.25314347     0.14100
H881        H  0.36637861  0.71186548  0.31278505     0.16700
C882        C  0.36767774  0.70065466  0.22168413    -0.30900
H883        H  0.36256241  0.70706308  0.19260602     0.16700
H884        H  0.45686603  0.73593083  0.18523142     0.16700
H885        H  0.45670248  0.63025905  0.31361686     0.16800
H886        H  0.45838200  0.74167283  0.30671906     0.16700
C887        C  0.37615629  0.92075311  0.45796432     0.30600
C888        C  0.37620686  0.92108799  0.03689735     0.30600
C889        C  0.40483266  0.92865237  0.47718754    -0.05600
C890        C  0.35610598  0.94231736  0.47706660    -0.06400
C891        C  0.36694076  0.89282971  0.47763421    -0.06300
C892        C  0.40475432  0.92873476  0.01761115    -0.05600
C893        C  0.35561934  0.94191204  0.01724110    -0.06400
C894        C  0.36699529  0.89300198  0.01799858    -0.06300
C895        C  0.42527952  0.94831148  0.02894766    -0.31700
N896        N  0.43823700  0.95933858  0.99749335     0.14800
C897        C  0.42554329  0.94826212  0.46598519    -0.31700
H898        H  0.42922834  0.95591564  0.43698271     0.16800
C899        C  0.33543039  0.96106960  0.02869730    -0.30600
N900        N  0.32489351  0.97400641  0.99702056     0.13600
C901        C  0.33727514  0.96287920  0.46535753    -0.30600
C902        C  0.34696564  0.87295297  0.02963756    -0.30900
N903        N  0.33558259  0.86021052  0.99842741     0.14100
H904        H  0.33949374  0.86946534  0.05876033     0.16700
C905        C  0.34676832  0.87268961  0.46663239    -0.30900
H906        H  0.33953732  0.86859667  0.43762160     0.16700
H907        H  0.33268900  0.96933125  0.43615849     0.16700
H908        H  0.42902286  0.95560100  0.05797891     0.16800
H909        H  0.32873108  0.96548124  0.05780524     0.16700
C910        C  0.37389266  0.92429335  0.20787199     0.30600
C911        C  0.37326014  0.92272674  0.28705063     0.30600
C912        C  0.40199552  0.93308655  0.22806521    -0.05600
C913        C  0.35149074  0.94280559  0.22746597    -0.06400
C914        C  0.36669635  0.89517560  0.22655491    -0.06300
C915        C  0.40155448  0.93253304  0.26839402    -0.05600
C916        C  0.35233537  0.94319812  0.26754948    -0.06400
C917        C  0.36751404  0.89425908  0.26689927    -0.06300
C918        C  0.42278556  0.95104280  0.28050885    -0.31700
N919        N  0.43648841  0.96188602  0.24939945     0.14800
C920        C  0.42402147  0.95131527  0.21734919    -0.31700
H921        H  0.42915165  0.95815018  0.18839114     0.16800
C922        C  0.33428175  0.96419686  0.27919485    -0.30600
N923        N  0.32099021  0.97480856  0.24782990     0.13600
C924        C  0.33063030  0.96136766  0.21616818    -0.30600
C925        C  0.35168463  0.87090324  0.27859023    -0.30900
N926        N  0.33950903  0.85879564  0.24743319     0.14100
H927        H  0.34611916  0.86553945  0.30797467     0.16700
C928        C  0.34761445  0.87383917  0.21588278    -0.30900
H929        H  0.33857753  0.87086904  0.18753249     0.16700
H930        H  0.32368626  0.96570135  0.18710478     0.16700
H931        H  0.42636361  0.95811794  0.30969635     0.16800
H932        H  0.33102507  0.97144328  0.30829967     0.16700
Zn933      Zn  0.48731269  0.53423145  0.03012669     1.49700
Zn934      Zn  0.02873163  0.56557229  0.46977885     1.49400
Zn935      Zn  0.05556424  0.52430879  0.03251602     1.49100
Zn936      Zn  0.01885557  0.99752420  0.46685875     1.49500
O937        O  0.02248869  0.53061794  0.99991299    -1.83600
O938        O  0.46806048  0.57213870  0.02039011    -0.74200
O939        O  0.06834694  0.58286334  0.47829040    -0.74000
O940        O  0.04397784  0.52698751  0.08708470    -0.73500
O941        O  0.99788562  0.59438165  0.48013251    -0.74200
O942        O  0.99695869  0.53352037  0.08602574    -0.73800
O943        O  0.08603454  0.55410748  0.02284425    -0.74400
O944        O  0.05033957  0.96913318  0.47391959    -0.73800
O945        O  0.02650688  0.55664096  0.41408456    -0.74500
O946        O  0.07328373  0.98561633  0.02498947    -0.73900
O947        O  0.01974321  0.50979623  0.41304682    -0.74400
O948        O  0.48174750  0.97675525  0.47477889    -0.74300
O949        O  0.45986413  0.50105079  0.02045805    -0.74100
C950        C  0.47514152  0.59385043  0.00032257     0.77700
C951        C  0.08854731  0.57553275  0.00057337     0.78200
C952        C  0.02031309  0.53058861  0.10413080     0.77200
C953        C  0.06960984  0.96669715  0.99940760     0.77500
C954        C  0.02293318  0.53349661  0.39608307     0.78700
C955        C  0.46078996  0.98012300  0.99743050     0.77700
Zn956      Zn  0.01676760  0.99868719  0.28350403     1.49700
Zn957      Zn  0.48710397  0.53652622  0.21946030     1.49400
Zn958      Zn  0.02846494  0.56613866  0.28094750     1.49100
Zn959      Zn  0.05483413  0.52491450  0.21802850     1.49500
O960        O  0.02172066  0.53176104  0.25036354    -1.83600
O961        O  0.47942863  0.97873826  0.27439282    -0.74200
O962        O  0.46825036  0.57431728  0.23076931    -0.75600
O963        O  0.02749243  0.55675099  0.33658637    -0.73500
O964        O  0.45921993  0.50351320  0.22744149    -0.74200
O965        O  0.01786228  0.51038495  0.33753877    -0.73800
O966        O  0.99749142  0.59490745  0.27296941    -0.74400
O967        O  0.08502707  0.55517353  0.22587726    -0.73800
O968        O  0.99705594  0.53599512  0.16360212    -0.74500
O969        O  0.06742714  0.58377687  0.27036533    -0.73900
O970        O  0.04347180  0.52639282  0.16332764    -0.74400
O971        O  0.07224307  0.98618551  0.22718597    -0.74300
O972        O  0.04740534  0.96954540  0.27685053    -0.74100
C973        C  0.45927754  0.98239107  0.25052314     0.77700
C974        C  0.47498924  0.59512431  0.25244681     0.78200
C975        C  0.02267880  0.53368593  0.35456359     0.77200
C976        C  0.08739473  0.57674304  0.24760397     0.77500
C977        C  0.02020072  0.53110373  0.14586902     0.78700
C978        C  0.06728279  0.96696409  0.25227133     0.77700
C979        C  0.11116689  0.87323522  0.46155976     0.30600
C980        C  0.11244409  0.87528513  0.04057581     0.30600
C981        C  0.10986055  0.90321019  0.47934916    -0.05600
C982        C  0.08579718  0.85865221  0.48236707    -0.06400
C983        C  0.13754558  0.86055403  0.48119563    -0.06300
C984        C  0.11102229  0.90422249  0.01981473    -0.05600
C985        C  0.08692100  0.85886038  0.02251064    -0.06400
C986        C  0.13763370  0.86048466  0.02112046    -0.06300
C987        C  0.09727194  0.92863937  0.03086677    -0.31700
N988        N  0.08750793  0.94221640  0.49929342     0.14800
C989        C  0.09393787  0.92641706  0.46817625    -0.31700
H990        H  0.08539813  0.93011588  0.43970992     0.16800
C991        C  0.06478441  0.84156907  0.03529010    -0.30600
N992        N  0.04970600  0.83223762  0.50443876     0.13600
C993        C  0.06172106  0.84327796  0.47212852    -0.30600
C994        C  0.16045220  0.84420048  0.03253551    -0.30900
N995        N  0.17532173  0.83646077  0.50088999     0.14100
H996        H  0.16588878  0.83830924  0.06170464     0.16700
C997        C  0.16158569  0.84634934  0.46930696    -0.30900
H998        H  0.16777583  0.84221299  0.43990771     0.16700
H999        H  0.05434113  0.83892957  0.44327589     0.16700
H1000       H  0.09163051  0.93417611  0.06003589     0.16800
H1001       H  0.06069624  0.83487190  0.06459573     0.16700
C1002       C  0.11203205  0.87297521  0.29050991     0.30600
C1003       C  0.11273936  0.87498707  0.21131913     0.30600
C1004       C  0.14068304  0.86588929  0.27116468    -0.05600
C1005       C  0.09107900  0.85243131  0.26993127    -0.06400
C1006       C  0.10370664  0.90131988  0.27182224    -0.06300
C1007       C  0.14133510  0.86705514  0.23086823    -0.05600
C1008       C  0.09230159  0.85272952  0.22977139    -0.06400
C1009       C  0.10515925  0.90266135  0.23194386    -0.06300
C1010       C  0.16482362  0.85140939  0.21973902    -0.31700
N1011       N  0.17856023  0.84181038  0.25145519     0.14800
C1012       C  0.16347443  0.84963081  0.28283177    -0.31700
H1013       H  0.16772989  0.84254928  0.31188974     0.16800
C1014       C  0.07228082  0.83324883  0.21688246    -0.30600
N1015       N  0.05773271  0.82265129  0.24758056     0.13600
C1016       C  0.06861872  0.83449079  0.27999118    -0.30600
C1017       C  0.09378923  0.92828142  0.22074465    -0.30900
N1018       N  0.08395417  0.94165547  0.25242885     0.14100
H1019       H  0.09029003  0.93531310  0.19147647     0.16700
C1020       C  0.08913512  0.92504112  0.28356441    -0.30900
H1021       H  0.08188036  0.92938402  0.31245886     0.16700
H1022       H  0.06013827  0.83075739  0.30850632     0.16700
H1023       H  0.17008988  0.84508080  0.19076786     0.16800
H1024       H  0.06770278  0.82796546  0.18726238     0.16700
C1025       C  0.18762617  0.60945370  0.03983432     0.30600
C1026       C  0.18789012  0.61098657  0.46042501     0.30600
C1027       C  0.19480665  0.63864306  0.02099440    -0.05600
C1028       C  0.20841660  0.58966911  0.01958923    -0.06400
C1029       C  0.15883919  0.60265992  0.02001885    -0.06300
C1030       C  0.19470599  0.63930574  0.48072141    -0.05600
C1031       C  0.20828208  0.59023157  0.47969759    -0.06400
C1032       C  0.15886647  0.60317630  0.47972138    -0.06300
C1033       C  0.20106092  0.66677424  0.46969467    -0.31700
N1034       N  0.20630082  0.68244191  0.50147578     0.14800
C1035       C  0.20162923  0.66592207  0.03294090    -0.31700
H1036       H  0.20441057  0.67315915  0.06215409     0.16800
C1037       C  0.22761607  0.57055476  0.46732850    -0.30600
N1038       N  0.23926510  0.55804420  0.49865342     0.13600
C1039       C  0.22792530  0.56965070  0.03077178    -0.30600
C1040       C  0.13130705  0.59613705  0.46825789    -0.30900
N1041       N  0.11521057  0.59085256  0.50002070     0.14100
H1042       H  0.12364167  0.59366498  0.43914028     0.16700
C1043       C  0.13145345  0.59574574  0.03153087    -0.30900
H1044       H  0.12382741  0.59354292  0.06073015     0.16700
H1045       H  0.23324313  0.56368733  0.05995174     0.16700
H1046       H  0.20270367  0.67484751  0.44063215     0.16800
H1047       H  0.23272709  0.56553156  0.43780396     0.16700
C1048       C  0.18528001  0.61207742  0.28979170     0.30600
C1049       C  0.18688827  0.61261599  0.21038638     0.30600
C1050       C  0.19245429  0.64111096  0.27065900    -0.05600
C1051       C  0.20664689  0.59240166  0.27054463    -0.06400
C1052       C  0.15681602  0.60495592  0.26927178    -0.06300
C1053       C  0.19303398  0.64135887  0.23032910    -0.05600
C1054       C  0.20701372  0.59238093  0.23073330    -0.06400
C1055       C  0.15776644  0.60459571  0.22898244    -0.06300
C1056       C  0.19950466  0.66880195  0.21916409    -0.31700
N1057       N  0.20405512  0.68481353  0.25090701     0.14800
C1058       C  0.19894045  0.66847982  0.28244918    -0.31700
H1059       H  0.20141726  0.67579468  0.31167533     0.16800
C1060       C  0.22603564  0.57223217  0.21926559    -0.30600
N1061       N  0.23728466  0.56020435  0.25115222     0.13600
C1062       C  0.22598240  0.57254266  0.28269615    -0.30600
C1063       C  0.13083438  0.59654010  0.21664726    -0.30900
N1064       N  0.11386205  0.59230218  0.24777095     0.14100
H1065       H  0.12391478  0.59326816  0.18733392     0.16700
C1066       C  0.12904536  0.59854625  0.27984458    -0.30900
H1067       H  0.12076034  0.59688408  0.30879224     0.16700
H1068       H  0.23080282  0.56680681  0.31212569     0.16700
H1069       H  0.20189643  0.67656102  0.19003350     0.16800
H1070       H  0.23121775  0.56654668  0.18999612     0.16700
Zn1071     Zn  0.27271356  0.74210632  0.46897100     1.49700
Zn1072     Zn  0.26057277  0.80933075  0.47012368     1.49400
Zn1073     Zn  0.23167335  0.76808573  0.03267128     1.49100
Zn1074     Zn  0.29986318  0.77977987  0.03360589     1.49500
O1075       O  0.26602919  0.77493241  0.00131773    -1.83600
O1076       O  0.27005295  0.75306277  0.41409158    -0.74200
O1077       O  0.22180916  0.82709262  0.47999565    -0.74000
O1078       O  0.21483670  0.72848610  0.02449707    -0.73500
O1079       O  0.26090116  0.79932235  0.41462026    -0.74200
O1080       O  0.24282140  0.71182656  0.47842566    -0.73800
O1081       O  0.20143663  0.79755127  0.02222664    -0.74400
O1082       O  0.28866639  0.78038073  0.08833252    -0.73800
O1083       O  0.29334629  0.83775241  0.47768981    -0.74500
O1084       O  0.24180542  0.77125875  0.08823624    -0.73900
O1085       O  0.31973801  0.81674866  0.02239046    -0.74400
O1086       O  0.32886105  0.74855175  0.02738027    -0.74300
O1087       O  0.31182414  0.72498149  0.47720489    -0.74100
C1088       C  0.26513435  0.77628741  0.39693777     0.77700
C1089       C  0.20062120  0.81962967  0.00097697     0.78200
C1090       C  0.22171895  0.70890775  0.00129174     0.77200
C1091       C  0.26511903  0.77640542  0.10568086     0.77500
C1092       C  0.31520735  0.83732797  0.99954066     0.78700
C1093       C  0.33113714  0.72908411  0.00241064     0.77700
Zn1094     Zn  0.27200050  0.74285948  0.21934025     1.49700
Zn1095     Zn  0.30025549  0.77999792  0.28380979     1.49400
Zn1096     Zn  0.26244806  0.81050162  0.21995589     1.49100
Zn1097     Zn  0.23147767  0.77020082  0.28222754     1.49500
O1098       O  0.26633197  0.77604506  0.25135643    -1.83600
O1099       O  0.31061299  0.72484849  0.22748091    -0.74200
O1100       O  0.32198961  0.81614610  0.27265764    -0.74000
O1101       O  0.26217426  0.80011957  0.16439852    -0.73500
O1102       O  0.32809151  0.74814725  0.27760194    -0.74200
O1103       O  0.26927517  0.75347304  0.16454717    -0.73800
O1104       O  0.29671330  0.83727487  0.22696060    -0.74400
O1105       O  0.20259058  0.80128174  0.27228066    -0.73800
O1106       O  0.28886737  0.78007051  0.33847093    -0.74500
O1107       O  0.22453914  0.83013369  0.23052305    -0.73900
O1108       O  0.24172997  0.77243309  0.33784830    -0.74400
O1109       O  0.21315086  0.73100587  0.27356983    -0.74300
O1110       O  0.24153263  0.71330445  0.22875954    -0.74100
C1111       C  0.32994804  0.72860993  0.25273413     0.77700
C1112       C  0.31848432  0.83642593  0.24895203     0.78200
C1113       C  0.26527931  0.77672773  0.14705910     0.77200
C1114       C  0.20296485  0.82362661  0.25143816     0.77500
C1115       C  0.26514739  0.77648669  0.35555689     0.78700
C1116       C  0.21996792  0.71103692  0.25088421     0.77700
C1117       C  0.18965495  0.61018600  0.41612234    -0.05600
C1118       C  0.17324470  0.58967500  0.39649420    -0.16700
C1119       C  0.17255105  0.58822969  0.35623962     0.11600
C1120       C  0.18656399  0.60980394  0.33402091    -0.05500
C1121       C  0.20758949  0.62582912  0.35345482    -0.16700
C1122       C  0.21043675  0.62513652  0.39358799     0.11700
S1123       S  0.15676949  0.55596407  0.33726434    -0.31700
S1124       S  0.24353459  0.64019477  0.41169241    -0.31700
H1125       H  0.24510119  0.62445330  0.44575361     0.29700
H1126       H  0.17205742  0.55495846  0.30280085     0.29700
H1127       H  0.16238627  0.57311033  0.41266956     0.20300
H1128       H  0.22361146  0.63736689  0.33705587     0.20300
C1129       C  0.18910301  0.60732070  0.08412388    -0.05600
C1130       C  0.20955648  0.62398362  0.10363699    -0.16700
C1131       C  0.21095627  0.62495204  0.14390299     0.11600
C1132       C  0.18953981  0.61071342  0.16617639    -0.05500
C1133       C  0.17411424  0.58918289  0.14695128    -0.16700
C1134       C  0.17461502  0.58637796  0.10679968     0.11700
S1135       S  0.24308815  0.64130907  0.16297820    -0.31700
S1136       S  0.15985593  0.55332422  0.08880416    -0.31700
H1137       H  0.17447822  0.55265180  0.05382275     0.29700
H1138       H  0.24429444  0.62615500  0.19756011     0.29700
H1139       H  0.22605258  0.63494831  0.08741037     0.20300
H1140       H  0.16318236  0.57288718  0.16349382     0.20300
C1141       C  0.11245281  0.87142918  0.41726075    -0.05600
C1142       C  0.12316156  0.89511248  0.39671093    -0.16700
C1143       C  0.12509682  0.89556746  0.35656147     0.11600
C1144       C  0.11357450  0.87266880  0.33481492    -0.05500
C1145       C  0.10676275  0.84763598  0.35521597    -0.16700
C1146       C  0.10705557  0.84627037  0.39558708     0.11700
S1147       S  0.14460624  0.92535971  0.33616773    -0.31700
S1148       S  0.10218555  0.81094219  0.41543012    -0.31700
H1149       H  0.11437457  0.81521702  0.45156094     0.29700
H1150       H  0.15985521  0.90950820  0.30931829     0.29700
H1151       H  0.13174258  0.91320578  0.41206584     0.20300
H1152       H  0.10284506  0.82821453  0.33964258     0.20300
C1153       C  0.11318372  0.87790378  0.08479029    -0.05600
C1154       C  0.08720897  0.87842184  0.10502317    -0.16700
C1155       C  0.08587044  0.87900952  0.14525682     0.11600
C1156       C  0.11166395  0.87773733  0.16710580    -0.05500
C1157       C  0.13729920  0.88260987  0.14672912    -0.16700
C1158       C  0.13824230  0.88398721  0.10644821     0.11700
S1159       S  0.05005093  0.88308359  0.16420610    -0.31700
S1160       S  0.17154451  0.89665728  0.08598922    -0.31700
H1161       H  0.15946211  0.91170316  0.05537918     0.29700
H1162       H  0.05582433  0.88903416  0.20261451     0.29700
H1163       H  0.06738897  0.87978388  0.08929441     0.20300
H1164       H  0.15676687  0.88730715  0.16221078     0.20300
C1165       C  0.30013381  0.49667466  0.24818140    -0.05600
C1166       C  0.27303691  0.49121856  0.23263749    -0.16700
C1167       C  0.25170687  0.51156808  0.23435987     0.11600
C1168       C  0.25779668  0.53808367  0.25129371    -0.05500
C1169       C  0.28493032  0.54363242  0.26658254    -0.16700
C1170       C  0.30631646  0.52324552  0.26483929     0.11700
S1171       S  0.21695314  0.50234580  0.21554263    -0.31700
S1172       S  0.34192013  0.53181959  0.28143015    -0.31700
H1173       H  0.33589546  0.05919017  0.29512073     0.29700
H1174       H  0.20144878  0.51936146  0.24099730     0.29700
H1175       H  0.26843739  0.97075183  0.22000924     0.20300
H1176       H  0.28942168  0.56428892  0.27878048     0.20300
C1177       C  0.26043254  0.53643723  0.49774860    -0.05600
C1178       C  0.28740397  0.54295229  0.48231415    -0.16700
C1179       C  0.30911051  0.52287829  0.48235107     0.11600
C1180       C  0.30355499  0.49550067  0.99732233    -0.05500
C1181       C  0.27655800  0.48897939  0.01271368    -0.16700
C1182       C  0.25485733  0.50905830  0.01268950     0.11700
S1183       S  0.34374372  0.53371924  0.46452462    -0.31700
S1184       S  0.22025967  0.49828953  0.03074438    -0.31700
H1185       H  0.20441986  0.51640959  0.00694749     0.29700
H1186       H  0.35951884  0.01608183  0.48903438     0.29700
H1187       H  0.29169800  0.56407937  0.47114710     0.20300
H1188       H  0.27228839  0.96785762  0.02405017     0.20300
C1189       C  0.37577289  0.91894720  0.41365975    -0.05600
C1190       C  0.34953536  0.92165053  0.39453546    -0.16700
C1191       C  0.34725581  0.92116344  0.35435052     0.11600
C1192       C  0.37256843  0.92045321  0.33139309    -0.05500
C1193       C  0.39800618  0.91337058  0.35062144    -0.16700
C1194       C  0.39952907  0.91111552  0.39080296     0.11700
S1195       S  0.31084555  0.91902349  0.33689276    -0.31700
S1196       S  0.43107844  0.89451773  0.40970389    -0.31700
H1197       H  0.41655166  0.87910198  0.43854882     0.29700
H1198       H  0.31577894  0.90863519  0.30006990     0.29700
H1199       H  0.33009417  0.92273295  0.41125278     0.20300
H1200       H  0.41672683  0.90795676  0.33410168     0.20300
C1201       C  0.37784729  0.92161382  0.08120961    -0.05600
C1202       C  0.37544874  0.94775744  0.10009529    -0.16700
C1203       C  0.37534440  0.95010585  0.14028714     0.11600
C1204       C  0.37615066  0.92500473  0.16349727    -0.05500
C1205       C  0.38310444  0.89963673  0.14443839    -0.16700
C1206       C  0.38527984  0.89795333  0.10431812     0.11700
S1207       S  0.37586915  0.98641162  0.15725197    -0.31700
S1208       S  0.40086834  0.86600199  0.08575206    -0.31700
H1209       H  0.41675462  0.87975075  0.05669918     0.29700
H1210       H  0.38255093  0.98236372  0.19586864     0.29700
H1211       H  0.37482162  0.96707383  0.08322017     0.20300
H1212       H  0.38853454  0.88098606  0.16096760     0.20300
C1213       C  0.03346936  0.80365290  0.24584049    -0.05600
C1214       C  0.00703370  0.81235766  0.26044644    -0.16700
C1215       C  0.98280477  0.79452554  0.25876213     0.11600
C1216       C  0.98512105  0.76722348  0.24276810    -0.05500
C1217       C  0.01135507  0.75885397  0.22736604    -0.16700
C1218       C  0.03551203  0.77659069  0.22903911     0.11700
S1219       S  0.44944809  0.80783696  0.27653569    -0.31700
S1220       S  0.06868774  0.76290434  0.21124182    -0.31700
H1221       H  0.08627083  0.77736642  0.23763906     0.29700
H1222       H  0.43170957  0.79003825  0.25434387     0.29700
H1223       H  0.00526478  0.83332241  0.27273131     0.20300
H1224       H  0.01327205  0.73775534  0.21554076     0.20300
C1225       C  0.98399039  0.76892981  0.50507432    -0.05600
C1226       C  0.01089519  0.76308301  0.02058299    -0.16700
C1227       C  0.03283572  0.78345846  0.02022865     0.11600
C1228       C  0.02764414  0.81076377  0.00516330    -0.05500
C1229       C  0.00059369  0.81678996  0.49002597    -0.16700
C1230       C  0.97863070  0.79620974  0.49012477     0.11700
S1231       S  0.06744759  0.77282278  0.03719360    -0.31700
S1232       S  0.44416860  0.80606507  0.47171584    -0.31700
H1233       H  0.42814036  0.78577644  0.49257492     0.29700
H1234       H  0.08309450  0.78888614  0.01003682     0.29700
H1235       H  0.01507266  0.74202856  0.03167534     0.20300
H1236       H  0.99656374  0.83774898  0.47853512     0.20300
C1237       C  0.42306397  0.68244310  0.41807130    -0.05600
C1238       C  0.44827150  0.68960690  0.39785049    -0.16700
C1239       C  0.44954009  0.68932683  0.35725456     0.11600
C1240       C  0.42422944  0.68432413  0.33562371    -0.05500
C1241       C  0.40046300  0.67338066  0.35596623    -0.16700
C1242       C  0.40022882  0.67076713  0.39606267     0.11700
S1243       S  0.48415363  0.69189857  0.33434175    -0.31700
S1244       S  0.37185486  0.64876194  0.41573887    -0.31700
H1245       H  0.38899676  0.63546163  0.44338392     0.29700
H1246       H  0.50018063  0.69814521  0.36747910     0.29700
H1247       H  0.46749272  0.69408800  0.41402693     0.20300
H1248       H  0.38239076  0.66468222  0.34040940     0.20300
C1249       C  0.42388689  0.68058199  0.08589214    -0.05600
C1250       C  0.39927684  0.67060216  0.10536942    -0.16700
C1251       C  0.39791598  0.66871277  0.14556586     0.11600
C1252       C  0.42084749  0.67951662  0.16808506    -0.05500
C1253       C  0.44676563  0.68498311  0.14880240    -0.16700
C1254       C  0.44894626  0.68485131  0.10858621     0.11700
S1255       S  0.36825445  0.64835156  0.16485265    -0.31700
S1256       S  0.48491149  0.68922699  0.09018122    -0.31700
H1257       H  0.48104298  0.67669848  0.05426526     0.29700
H1258       H  0.38425062  0.63539984  0.19408468     0.29700
H1259       H  0.38121389  0.66260425  0.08912622     0.20300
H1260       H  0.46596638  0.68880181  0.16543102     0.20300
C1261       C  0.42303057  0.68282619  0.54160951     0.30600
C1262       C  0.42278237  0.68380366  0.96247448     0.30600
C1263       C  0.39334296  0.68629482  0.52268249    -0.05600
C1264       C  0.43934080  0.70774690  0.52248731    -0.06400
C1265       C  0.43479368  0.65657316  0.52141366    -0.06300
C1266       C  0.39324619  0.68668430  0.98206916    -0.05600
C1267       C  0.43958676  0.70820573  0.98226394    -0.06400
C1268       C  0.43530031  0.65742735  0.98158980    -0.06300
C1269       C  0.37002304  0.70268794  0.97108149    -0.31700
N1270       N  0.35581582  0.71135083  0.50261447     0.14800
C1271       C  0.37049874  0.70277712  0.53395925    -0.31700
H1272       H  0.36621553  0.70993119  0.56288573     0.16800
C1273       C  0.45458300  0.73243511  0.97137897    -0.30600
N1274       N  0.46310540  0.74636018  0.00359337     0.13600
C1275       C  0.45339832  0.73185379  0.53475757    -0.30600
C1276       C  0.44984802  0.63388440  0.96937607    -0.30900
N1277       N  0.45736081  0.61839173  0.50069527     0.14100
H1278       H  0.45524981  0.62878642  0.93998104     0.16700
C1279       C  0.44804884  0.63187566  0.53264546    -0.30900
H1280       H  0.45231925  0.62522069  0.56188397     0.16700
H1281       H  0.45688030  0.73829279  0.56419351     0.16700
H1282       H  0.36550024  0.70996395  0.94219177     0.16800
H1283       H  0.45951498  0.73927724  0.94236505     0.16700
C1284       C  0.42031080  0.68247618  0.71222410     0.30600
C1285       C  0.42289648  0.68519080  0.79116154     0.30600
C1286       C  0.43386115  0.65735402  0.73270312    -0.05600
C1287       C  0.43685193  0.70820515  0.72918091    -0.06400
C1288       C  0.39126610  0.68524371  0.73272373    -0.06300
C1289       C  0.43552721  0.65872811  0.77241049    -0.05600
C1290       C  0.43781890  0.70982833  0.76929894    -0.06400
C1291       C  0.39255498  0.68668335  0.77331626    -0.06300
C1292       C  0.45056410  0.63527698  0.78439992    -0.31700
N1293       N  0.45731481  0.61968152  0.75298355     0.14800
C1294       C  0.44706552  0.63290033  0.72130536    -0.31700
H1295       H  0.45023940  0.62594686  0.69202444     0.16800
C1296       C  0.45299618  0.73422451  0.77824899    -0.30600
N1297       N  0.46226556  0.74660327  0.74510736     0.13600
C1298       C  0.45222263  0.73118369  0.71507288    -0.30600
C1299       C  0.36980112  0.70331709  0.78434729    -0.30900
N1300       N  0.35423994  0.71044660  0.75314559     0.14100
H1301       H  0.36637195  0.71185085  0.81278660     0.16700
C1302       C  0.36767107  0.70064093  0.72168593    -0.30900
H1303       H  0.36255581  0.70705071  0.69260834     0.16700
H1304       H  0.45685722  0.73593029  0.68523602     0.16700
H1305       H  0.45670364  0.63025419  0.81361367     0.16800
H1306       H  0.45837349  0.74166695  0.80672404     0.16700
C1307       C  0.37615979  0.92074106  0.95796167     0.30600
C1308       C  0.37620822  0.92109371  0.53689973     0.30600
C1309       C  0.40483428  0.92864469  0.97718662    -0.05600
C1310       C  0.35610653  0.94230437  0.97705853    -0.06400
C1311       C  0.36694641  0.89281845  0.97763434    -0.06300
C1312       C  0.40475538  0.92873912  0.51761166    -0.05600
C1313       C  0.35562138  0.94192114  0.51724928    -0.06400
C1314       C  0.36699228  0.89301021  0.51799820    -0.06300
C1315       C  0.42528510  0.94831121  0.52894862    -0.31700
N1316       N  0.43824302  0.95933814  0.49749424     0.14800
C1317       C  0.42554188  0.94825746  0.96598428    -0.31700
H1318       H  0.42922777  0.95590920  0.93698117     0.16800
C1319       C  0.33543481  0.96107889  0.52871245    -0.30600
N1320       N  0.32489726  0.97402069  0.49704022     0.13600
C1321       C  0.33727448  0.96286240  0.96534224    -0.30600
C1322       C  0.34696274  0.87296106  0.52963740    -0.30900
N1323       N  0.33557736  0.86022054  0.49842732     0.14100
H1324       H  0.33949307  0.86947140  0.55876073     0.16700
C1325       C  0.34677569  0.87267707  0.96663242    -0.30900
H1326       H  0.33954650  0.86858214  0.93762149     0.16700
H1327       H  0.33268950  0.96931031  0.93614121     0.16700
H1328       H  0.42903124  0.95559816  0.55798039     0.16800
H1329       H  0.32873775  0.96548758  0.55782215     0.16700
C1330       C  0.37389090  0.92428587  0.70787190     0.30600
C1331       C  0.37325842  0.92271777  0.78704959     0.30600
C1332       C  0.40199173  0.93308488  0.72806552    -0.05600
C1333       C  0.35148437  0.94279243  0.72746554    -0.06400
C1334       C  0.36670026  0.89516608  0.72655313    -0.06300
C1335       C  0.40155064  0.93253068  0.76839348    -0.05600
C1336       C  0.35232861  0.94318488  0.76754900    -0.06400
C1337       C  0.36751852  0.89424885  0.76689767    -0.06300
C1338       C  0.42278143  0.95104055  0.78050935    -0.31700
N1339       N  0.43648430  0.96188474  0.74940035     0.14800
C1340       C  0.42401758  0.95131399  0.71734969    -0.31700
H1341       H  0.42914812  0.95814866  0.68839176     0.16800
C1342       C  0.33427145  0.96418115  0.77919359    -0.30600
N1343       N  0.32097841  0.97479032  0.74782802     0.13600
C1344       C  0.33062124  0.96135112  0.71616669    -0.30600
C1345       C  0.35168957  0.87089230  0.77858794    -0.30900
N1346       N  0.33951328  0.85878515  0.74743118     0.14100
H1347       H  0.34612412  0.86552828  0.80797226     0.16700
C1348       C  0.34761781  0.87382967  0.71588129    -0.30900
H1349       H  0.33857914  0.87086100  0.68753180     0.16700
H1350       H  0.32367860  0.96568514  0.68710277     0.16700
H1351       H  0.42635983  0.95811443  0.80969728     0.16800
H1352       H  0.33101461  0.97142873  0.80829786     0.16700
Zn1353     Zn  0.48730689  0.53422959  0.53012663     1.49700
Zn1354     Zn  0.02873168  0.56557475  0.96977340     1.49400
Zn1355     Zn  0.05556109  0.52430299  0.53251622     1.49100
Zn1356     Zn  0.01885215  0.99752512  0.96685775     1.49500
O1357       O  0.02248567  0.53061402  0.49991378    -1.83600
O1358       O  0.46805533  0.57213760  0.52038801    -0.74200
O1359       O  0.06834593  0.58286831  0.97828241    -0.74000
O1360       O  0.04397455  0.52697794  0.58708368    -0.73500
O1361       O  0.99788559  0.59438399  0.98012647    -0.74200
O1362       O  0.99695566  0.53351289  0.58602506    -0.73800
O1363       O  0.08603531  0.55409952  0.52284852    -0.74400
O1364       O  0.05033524  0.96913245  0.97391459    -0.73800
O1365       O  0.02650551  0.55663996  0.91408016    -0.74500
O1366       O  0.07328999  0.98562068  0.52499081    -0.73900
O1367       O  0.01974661  0.50979461  0.91304736    -0.74400
O1368       O  0.48173903  0.97675852  0.97477598    -0.74300
O1369       O  0.45985803  0.50104951  0.52045950    -0.74100
C1370       C  0.47513927  0.59385050  0.50032436     0.77700
C1371       C  0.08854874  0.57552578  0.50057944     0.78200
C1372       C  0.02030991  0.53057897  0.60412975     0.77200
C1373       C  0.06961529  0.96669960  0.49941140     0.77500
C1374       C  0.02293362  0.53349430  0.89608114     0.78700
C1375       C  0.46079742  0.98012126  0.49743160     0.77700
Zn1376     Zn  0.01676981  0.99868992  0.78350562     1.49700
Zn1377     Zn  0.48710242  0.53652304  0.71945908     1.49400
Zn1378     Zn  0.02846520  0.56613157  0.78094452     1.49100
Zn1379     Zn  0.05483294  0.52490841  0.71802529     1.49500
O1380       O  0.02172053  0.53175484  0.75036131    -1.83600
O1381       O  0.47942260  0.97873926  0.77439835    -0.74200
O1382       O  0.46825143  0.57431536  0.73076499    -0.75600
O1383       O  0.02749269  0.55674559  0.83658287    -0.73500
O1384       O  0.45921732  0.50351176  0.72744292    -0.74200
O1385       O  0.01786073  0.51038013  0.83753861    -0.73800
O1386       O  0.99749360  0.59490108  0.77296556    -0.74400
O1387       O  0.08502427  0.55516946  0.72586792    -0.73800
O1388       O  0.99705416  0.53598749  0.66360099    -0.74500
O1389       O  0.06742659  0.58376830  0.77036284    -0.73900
O1390       O  0.04346909  0.52638129  0.66332541    -0.74400
O1391       O  0.07224522  0.98618634  0.72718559    -0.74300
O1392       O  0.04740698  0.96954625  0.77684968    -0.74100
C1393       C  0.45927358  0.98239001  0.75052477     0.77700
C1394       C  0.47499146  0.59512212  0.75244222     0.78200
C1395       C  0.02267827  0.53368153  0.85456176     0.77200
C1396       C  0.08739267  0.57673706  0.74759784     0.77500
C1397       C  0.02019804  0.53109348  0.64586751     0.78700
C1398       C  0.06728421  0.96696423  0.75227004     0.77700
C1399       C  0.11116655  0.87323366  0.96156054     0.30600
C1400       C  0.11244274  0.87528237  0.54057469     0.30600
C1401       C  0.10985745  0.90320917  0.97934737    -0.05600
C1402       C  0.08579902  0.85864929  0.98237064    -0.06400
C1403       C  0.13754706  0.86055617  0.98119671    -0.06300
C1404       C  0.11102448  0.90422140  0.51981667    -0.05600
C1405       C  0.08691800  0.85886152  0.52250705    -0.06400
C1406       C  0.13763067  0.86047959  0.52111908    -0.06300
C1407       C  0.09727553  0.92863910  0.53087023    -0.31700
N1408       N  0.08750227  0.94221412  0.99928926     0.14800
C1409       C  0.09393263  0.92641414  0.96817294    -0.31700
H1410       H  0.08539240  0.93011135  0.93970640     0.16800
C1411       C  0.06478077  0.84156993  0.53528380    -0.30600
N1412       N  0.04970841  0.83223632  0.00444657     0.13600
C1413       C  0.06172233  0.84327525  0.97213482    -0.30600
C1414       C  0.16044667  0.84419186  0.53253372    -0.30900
N1415       N  0.17532629  0.83646781  0.00089149     0.14100
H1416       H  0.16588169  0.83829826  0.56170258     0.16700
C1417       C  0.16158775  0.84635245  0.96930820    -0.30900
H1418       H  0.16777623  0.84221334  0.93990911     0.16700
H1419       H  0.05434045  0.83892684  0.94328314     0.16700
H1420       H  0.09163309  0.93417450  0.56003959     0.16800
H1421       H  0.06069201  0.83487148  0.56458866     0.16700
C1422       C  0.11203090  0.87297269  0.79050915     0.30600
C1423       C  0.11273926  0.87498448  0.71131817     0.30600
C1424       C  0.14068190  0.86588531  0.77116422    -0.05600
C1425       C  0.09107701  0.85242970  0.76992978    -0.06400
C1426       C  0.10370691  0.90131811  0.77182099    -0.06300
C1427       C  0.14133452  0.86705123  0.73086803    -0.05600
C1428       C  0.09230062  0.85272788  0.72977001    -0.06400
C1429       C  0.10515959  0.90265935  0.73194247    -0.06300
C1430       C  0.16482510  0.85140799  0.71973929    -0.31700
N1431       N  0.17856228  0.84181006  0.75145571     0.14800
C1432       C  0.16347496  0.84962909  0.78283195    -0.31700
H1433       H  0.16773058  0.84254796  0.81189002     0.16800
C1434       C  0.07228100  0.83324676  0.71687967    -0.30600
N1435       N  0.05773203  0.82264889  0.74757653     0.13600
C1436       C  0.06861659  0.83448859  0.77998812    -0.30600
C1437       C  0.09378942  0.92827962  0.72074288    -0.30900
N1438       N  0.08395475  0.94165448  0.75242696     0.14100
H1439       H  0.09029014  0.93531093  0.69147465     0.16700
C1440       C  0.08913587  0.92504007  0.78356263    -0.30900
H1441       H  0.08188145  0.92938337  0.81245714     0.16700
H1442       H  0.06013563  0.83075435  0.80850271     0.16700
H1443       H  0.17009237  0.84507973  0.69076834     0.16800
H1444       H  0.06770486  0.82796258  0.68725929     0.16700
C1445       C  0.18763112  0.60944599  0.53983308     0.30600
C1446       C  0.18788998  0.61099239  0.96042584     0.30600
C1447       C  0.19481313  0.63863560  0.52099319    -0.05600
C1448       C  0.20841810  0.58965890  0.51958450    -0.06400
C1449       C  0.15884206  0.60265471  0.52002040    -0.06300
C1450       C  0.19470166  0.63931268  0.98072230    -0.05600
C1451       C  0.20828379  0.59024023  0.97970218    -0.06400
C1452       C  0.15886595  0.60318043  0.97971990    -0.06300
C1453       C  0.20105582  0.66678129  0.96969636    -0.31700
N1454       N  0.20629386  0.68244889  0.00147813     0.14800
C1455       C  0.20163674  0.66591503  0.53293884    -0.31700
H1456       H  0.20441772  0.67315293  0.56215166     0.16800
C1457       C  0.22762505  0.57056799  0.96733888    -0.30600
N1458       N  0.23927464  0.55806248  0.99866770     0.13600
C1459       C  0.22792226  0.56963381  0.53076122    -0.30600
C1460       C  0.13130672  0.59614283  0.96825401    -0.30900
N1461       N  0.11520826  0.59086058  0.00001550     0.14100
H1462       H  0.12364253  0.59367081  0.93913574     0.16700
C1463       C  0.13145737  0.59573743  0.53153482    -0.30900
H1464       H  0.12383332  0.59353220  0.56073468     0.16700
H1465       H  0.23324130  0.56366708  0.55993944     0.16700
H1466       H  0.20270019  0.67485470  0.94063411     0.16800
H1467       H  0.23274054  0.56554449  0.93781602     0.16700
C1468       C  0.18527369  0.61208015  0.78979075     0.30600
C1469       C  0.18688400  0.61261800  0.71038492     0.30600
C1470       C  0.19244396  0.64111414  0.77065758    -0.05600
C1471       C  0.20664360  0.59240718  0.77054489    -0.06400
C1472       C  0.15681128  0.60495432  0.76926925    -0.06300
C1473       C  0.19302436  0.64136194  0.73032763    -0.05600
C1474       C  0.20701159  0.59238612  0.73073354    -0.06400
C1475       C  0.15776299  0.60459364  0.72897967    -0.06300
C1476       C  0.19949168  0.66880572  0.71916308    -0.31700
N1477       N  0.20404119  0.68481728  0.75090623     0.14800
C1478       C  0.19892731  0.66848329  0.78244809    -0.31700
H1479       H  0.20140423  0.67579806  0.81167433     0.16800
C1480       C  0.22603429  0.57223775  0.71926717    -0.30600
N1481       N  0.23728277  0.56021073  0.75115469     0.13600
C1482       C  0.22597943  0.57254911  0.78269773    -0.30600
C1483       C  0.13083235  0.59653528  0.71664272    -0.30900
N1484       N  0.11385949  0.59229654  0.74776558     0.14100
H1485       H  0.12391404  0.59326270  0.68732899     0.16700
C1486       C  0.12904086  0.59854261  0.77984008    -0.30900
H1487       H  0.12075449  0.59688115  0.80878726     0.16700
H1488       H  0.23079901  0.56681347  0.81212765     0.16700
H1489       H  0.20188342  0.67656515  0.69003266     0.16800
H1490       H  0.23121692  0.56655165  0.68999815     0.16700
Zn1491     Zn  0.27271285  0.74210379  0.96897458     1.49700
Zn1492     Zn  0.26057416  0.80932743  0.97012277     1.49400
Zn1493     Zn  0.23167352  0.76808155  0.53266885     1.49100
Zn1494     Zn  0.29986299  0.77978494  0.53360356     1.49500
O1495       O  0.26602907  0.77493400  0.50131593    -1.83600
O1496       O  0.27005543  0.75305718  0.91409383    -0.74200
O1497       O  0.22181236  0.82709460  0.97999455    -0.74000
O1498       O  0.21483978  0.72848035  0.52449375    -0.73500
O1499       O  0.26090023  0.79931597  0.91462010    -0.74200
O1500       O  0.24281751  0.71182920  0.97842978    -0.73800
O1501       O  0.20143452  0.79754540  0.52222422    -0.74400
O1502       O  0.28866580  0.78038014  0.58833098    -0.73800
O1503       O  0.29335088  0.83774520  0.97768797    -0.74500
O1504       O  0.24180601  0.77125119  0.58823446    -0.73900
O1505       O  0.31973597  0.81675656  0.52238972    -0.74400
O1506       O  0.32886259  0.74855932  0.52737508    -0.74300
O1507       O  0.31182078  0.72497470  0.97721073    -0.74100
C1508       C  0.26513515  0.77628088  0.89693872     0.77700
C1509       C  0.20061788  0.81962459  0.50097588     0.78200
C1510       C  0.22172350  0.70890255  0.50128841     0.77200
C1511       C  0.26511921  0.77639939  0.60567943     0.77500
C1512       C  0.31520348  0.83733635  0.49954114     0.78700
C1513       C  0.33114014  0.72909214  0.50240514     0.77700
Zn1514     Zn  0.27199581  0.74285148  0.71934043     1.49700
Zn1515     Zn  0.30025546  0.77998875  0.78380892     1.49400
Zn1516     Zn  0.26244904  0.81049475  0.71995500     1.49100
Zn1517     Zn  0.23147686  0.77019892  0.78222941     1.49500
O1518       O  0.26633115  0.77603843  0.75135632    -1.83600
O1519       O  0.31060483  0.72483360  0.72748551    -0.74200
O1520       O  0.32199154  0.81613654  0.77265690    -0.74000
O1521       O  0.26217539  0.80011143  0.66439832    -0.73500
O1522       O  0.32808911  0.74813641  0.77759961    -0.74200
O1523       O  0.26927386  0.75346451  0.66454554    -0.73800
O1524       O  0.29671651  0.83726577  0.72695887    -0.74400
O1525       O  0.20259246  0.80128209  0.77228395    -0.73800
O1526       O  0.28886803  0.78005929  0.83847093    -0.74500
O1527       O  0.22454034  0.83012989  0.73052084    -0.73900
O1528       O  0.24172945  0.77243006  0.83784978    -0.74400
O1529       O  0.21314481  0.73100708  0.77357178    -0.74300
O1530       O  0.24152247  0.71330264  0.72875891    -0.74100
C1531       C  0.32994181  0.72859586  0.75273595     0.77700
C1532       C  0.31848745  0.83641620  0.74895047     0.78200
C1533       C  0.26527950  0.77671985  0.64705803     0.77200
C1534       C  0.20296666  0.82362555  0.75143887     0.77500
C1535       C  0.26514783  0.77647924  0.85555771     0.78700
C1536       C  0.21995790  0.71103807  0.75088422     0.77700
C1537       C  0.18965458  0.61019082  0.91612263    -0.05600
C1538       C  0.17324509  0.58967839  0.89649582    -0.16700
C1539       C  0.17254834  0.58823345  0.85624119     0.11600
C1540       C  0.18655856  0.60980829  0.83402056    -0.05500
C1541       C  0.20758373  0.62583544  0.85345274    -0.16700
C1542       C  0.21043295  0.62514399  0.89358593     0.11700
S1543       S  0.15676637  0.55596761  0.83726767    -0.31700
S1544       S  0.24352961  0.64020658  0.91168730    -0.31700
H1545       H  0.24509797  0.62446693  0.94574991     0.29700
H1546       H  0.17205685  0.55496023  0.80280624     0.29700
H1547       H  0.16238899  0.57311284  0.91267224     0.20300
H1548       H  0.22360420  0.63737410  0.83705227     0.20300
C1549       C  0.18910907  0.60731326  0.58412275    -0.05600
C1550       C  0.20955886  0.62398032  0.60363628    -0.16700
C1551       C  0.21095395  0.62495420  0.64390233     0.11600
C1552       C  0.18953783  0.61071418  0.66617501    -0.05500
C1553       C  0.17411707  0.58917964  0.64695083    -0.16700
C1554       C  0.17462129  0.58637120  0.60679967     0.11700
S1555       S  0.24307979  0.64132156  0.66297979    -0.31700
S1556       S  0.15986502  0.55331526  0.58880700    -0.31700
H1557       H  0.17447871  0.55264584  0.55381916     0.29700
H1558       H  0.24428925  0.62616630  0.69756068     0.29700
H1559       H  0.22605558  0.63494473  0.58741060     0.20300
H1560       H  0.16318577  0.57288407  0.66349422     0.20300
C1561       C  0.11245172  0.87142677  0.91726111    -0.05600
C1562       C  0.12316167  0.89510928  0.89671079    -0.16700
C1563       C  0.12509681  0.89556401  0.85656120     0.11600
C1564       C  0.11357309  0.87266601  0.83481457    -0.05500
C1565       C  0.10675983  0.84763363  0.85521611    -0.16700
C1566       C  0.10705306  0.84626818  0.89558751     0.11700
S1567       S  0.14460753  0.92535547  0.83616756    -0.31700
S1568       S  0.10218216  0.81094064  0.91543175    -0.31700
H1569       H  0.11437915  0.81521570  0.95155786     0.29700
H1570       H  0.15985452  0.90950404  0.80931606     0.29700
H1571       H  0.13174335  0.91320236  0.91206560     0.20300
H1572       H  0.10284074  0.82821231  0.83964293     0.20300
C1573       C  0.11318334  0.87789853  0.58478913    -0.05600
C1574       C  0.08720879  0.87841731  0.60502211    -0.16700
C1575       C  0.08587030  0.87900527  0.64525561     0.11600
C1576       C  0.11166378  0.87773340  0.66710477    -0.05500
C1577       C  0.13729918  0.88260371  0.64672796    -0.16700
C1578       C  0.13824274  0.88397933  0.60644716     0.11700
S1579       S  0.05005058  0.88307868  0.66420434    -0.31700
S1580       S  0.17154815  0.89664247  0.58598954    -0.31700
H1581       H  0.15947126  0.91168319  0.55537095     0.29700
H1582       H  0.05582426  0.88903339  0.70261148     0.29700
H1583       H  0.06738875  0.87978013  0.58929351     0.20300
H1584       H  0.15676696  0.88730075  0.66220938     0.20300
C1585       C  0.30013783  0.49668710  0.74818445    -0.05600
C1586       C  0.27304257  0.49122985  0.73263577    -0.16700
C1587       C  0.25170993  0.51157651  0.73436029     0.11600
C1588       C  0.25779616  0.53809144  0.75129785    -0.05500
C1589       C  0.28492748  0.54364101  0.76659315    -0.16700
C1590       C  0.30631547  0.52325607  0.76485144     0.11700
S1591       S  0.21695682  0.50235089  0.71554399    -0.31700
S1592       S  0.34191496  0.53183090  0.78145764    -0.31700
H1593       H  0.33590577  0.05919152  0.79504124     0.29700
H1594       H  0.20145137  0.51936238  0.74100274     0.29700
H1595       H  0.26842028  0.97072979  0.72002527     0.20300
H1596       H  0.28941561  0.56429675  0.77879553     0.20300
C1597       C  0.26044411  0.53645718  0.99777099    -0.05600
C1598       C  0.28741734  0.54297259  0.98234220    -0.16700
C1599       C  0.30912390  0.52289836  0.98238303     0.11600
C1600       C  0.30354436  0.49548180  0.49729653    -0.05500
C1601       C  0.27654731  0.48895917  0.51268706    -0.16700
C1602       C  0.25484559  0.50903710  0.51266247     0.11700
S1603       S  0.34376107  0.53374020  0.96457147    -0.31700
S1604       S  0.22024641  0.49826526  0.53070905    -0.31700
H1605       H  0.20440813  0.51639452  0.50692333     0.29700
H1606       H  0.35950841  0.01607120  0.98896851     0.29700
H1607       H  0.29171259  0.56409985  0.97117652     0.20300
H1608       H  0.27228949  0.96787345  0.52406226     0.20300
C1609       C  0.37577568  0.91893323  0.91365729    -0.05600
C1610       C  0.34953672  0.92163076  0.89453455    -0.16700
C1611       C  0.34725617  0.92114667  0.85434987     0.11600
C1612       C  0.37256842  0.92044271  0.83139151    -0.05500
C1613       C  0.39800807  0.91336315  0.85061786    -0.16700
C1614       C  0.39953284  0.91110740  0.89079916     0.11700
S1615       S  0.31084564  0.91900334  0.83689360    -0.31700
S1616       S  0.43108564  0.89451503  0.90969816    -0.31700
H1617       H  0.41656259  0.87909841  0.93854569     0.29700
H1618       H  0.31577881  0.90861744  0.80006945     0.29700
H1619       H  0.33009568  0.92270777  0.91125281     0.20300
H1620       H  0.41672910  0.90795275  0.83409672     0.20300
C1621       C  0.37785049  0.92161622  0.58121127    -0.05600
C1622       C  0.37545448  0.94775868  0.60010029    -0.16700
C1623       C  0.37534557  0.95010353  0.64029216     0.11600
C1624       C  0.37614947  0.92500021  0.66349812    -0.05500
C1625       C  0.38310169  0.89963307  0.64443626    -0.16700
C1626       C  0.38527835  0.89795257  0.60431632     0.11700
S1627       S  0.37586341  0.98640793  0.65726277    -0.31700
S1628       S  0.40086227  0.86600004  0.58574678    -0.31700
H1629       H  0.41674970  0.87974833  0.55669462     0.29700
H1630       H  0.38254025  0.98235844  0.69588071     0.29700
H1631       H  0.37483040  0.96707657  0.58322796     0.20300
H1632       H  0.38852973  0.88098051  0.66096269     0.20300
C1633       C  0.03347018  0.80364880  0.74583405    -0.05600
C1634       C  0.00703230  0.81235306  0.76043342    -0.16700
C1635       C  0.98280481  0.79451919  0.75874670     0.11600
C1636       C  0.98512560  0.76721500  0.74276165    -0.05500
C1637       C  0.01136119  0.75884624  0.72736388    -0.16700
C1638       C  0.03551603  0.77658605  0.72903449     0.11700
S1639       S  0.44943839  0.80783297  0.77654479    -0.31700
S1640       S  0.06869232  0.76290424  0.71123210    -0.31700
H1641       H  0.08627604  0.77736905  0.73762577     0.29700
H1642       H  0.43170052  0.79003803  0.75434643     0.29700
H1643       H  0.00526034  0.83331901  0.77271358     0.20300
H1644       H  0.01328058  0.73774678  0.71554209     0.20300
C1645       C  0.98399245  0.76893021  0.00507798    -0.05600
C1646       C  0.01089139  0.76308598  0.52058728    -0.16700
C1647       C  0.03283192  0.78346147  0.52023020     0.11600
C1648       C  0.02764240  0.81076391  0.50515358    -0.05500
C1649       C  0.00059347  0.81679328  0.99004520    -0.16700
C1650       C  0.97863069  0.79621314  0.99014057     0.11700
S1651       S  0.06744185  0.77282872  0.53720579    -0.31700
S1652       S  0.44416562  0.80606915  0.97172773    -0.31700
H1653       H  0.42813583  0.78577667  0.99257767     0.29700
H1654       H  0.08309082  0.78888409  0.51004246     0.29700
H1655       H  0.01506781  0.74203374  0.53168806     0.20300
H1656       H  0.99656232  0.83775462  0.97856277     0.20300
C1657       C  0.42306158  0.68243895  0.91807258    -0.05600
C1658       C  0.44826852  0.68960388  0.89785082    -0.16700
C1659       C  0.44953702  0.68932102  0.85725471     0.11600
C1660       C  0.42422629  0.68431635  0.83562465    -0.05500
C1661       C  0.40046098  0.67337178  0.85596846    -0.16700
C1662       C  0.40022788  0.67075917  0.89606510     0.11700
S1663       S  0.48415008  0.69189292  0.83434027    -0.31700
S1664       S  0.37185870  0.64874896  0.91574332    -0.31700
H1665       H  0.38900442  0.63545070  0.94338583     0.29700
H1666       H  0.50018270  0.69811022  0.86748261     0.29700
H1667       H  0.46748927  0.69408829  0.91402673     0.20300
H1668       H  0.38238939  0.66467119  0.84041270     0.20300
C1669       C  0.42388622  0.68058454  0.58589119    -0.05600
C1670       C  0.39927555  0.67060361  0.60536619    -0.16700
C1671       C  0.39791379  0.66871106  0.64556256     0.11600
C1672       C  0.42084425  0.67951420  0.66808451    -0.05500
C1673       C  0.44676267  0.68498287  0.64880357    -0.16700
C1674       C  0.44894470  0.68485249  0.60858739     0.11700
S1675       S  0.36825429  0.64834463  0.66484488    -0.31700
S1676       S  0.48491069  0.68922620  0.59018489    -0.31700
H1677       H  0.48104284  0.67669480  0.55427059     0.29700
H1678       H  0.38425177  0.63539220  0.69407507     0.29700
H1679       H  0.38121320  0.66260659  0.58912090     0.20300
H1680       H  0.46596276  0.68880146  0.66543371     0.20300
C1681       C  0.92302946  0.18282358  0.04161456     0.30600
C1682       C  0.92278522  0.18380378  0.46248006     0.30600
C1683       C  0.89334233  0.18629812  0.02268786    -0.05600
C1684       C  0.93934435  0.20774043  0.02249115    -0.06400
C1685       C  0.93478735  0.15656750  0.02141915    -0.06300
C1686       C  0.89325021  0.18669408  0.48207417    -0.05600
C1687       C  0.93959762  0.20820050  0.48226912    -0.06400
C1688       C  0.93529482  0.15742366  0.48159595    -0.06300
C1689       C  0.87002956  0.20270067  0.47108491    -0.31700
N1690       N  0.85581846  0.21135850  0.00261861     0.14800
C1691       C  0.87050084  0.20278457  0.03396383    -0.31700
H1692       H  0.86621844  0.20994000  0.06288980     0.16800
C1693       C  0.95460093  0.23242521  0.47138305    -0.30600
N1694       N  0.96312728  0.24634840  0.50359675     0.13600
C1695       C  0.95340705  0.23184448  0.03476066    -0.30600
C1696       C  0.94984189  0.13388030  0.46938243    -0.30900
N1697       N  0.95735579  0.11838667  0.00069970     0.14100
H1698       H  0.95524597  0.12878376  0.43998757     0.16700
C1699       C  0.94804375  0.13187028  0.03265035    -0.30900
H1700       H  0.95231687  0.12521652  0.06188868     0.16700
H1701       H  0.95688990  0.23828393  0.06419616     0.16700
H1702       H  0.86550686  0.20997514  0.44219452     0.16800
H1703       H  0.95953320  0.23926665  0.44236900     0.16700
C1704       C  0.92031240  0.18248250  0.21222976     0.30600
C1705       C  0.92289869  0.18519636  0.29116756     0.30600
C1706       C  0.93385647  0.15735702  0.23270855    -0.05600
C1707       C  0.93686008  0.20820731  0.22918658    -0.06400
C1708       C  0.89126907  0.18525706  0.23272966    -0.06300
C1709       C  0.93552317  0.15873064  0.27241604    -0.05600
C1710       C  0.93782687  0.20983050  0.26930478    -0.06400
C1711       C  0.89255791  0.18669607  0.27332213    -0.06300
C1712       C  0.95055952  0.13527870  0.28440409    -0.31700
N1713       N  0.95730890  0.11968338  0.25298687     0.14800
C1714       C  0.94705935  0.13290295  0.22130963    -0.31700
H1715       H  0.95023420  0.12595092  0.19202817     0.16800
C1716       C  0.95300905  0.23422360  0.27825470    -0.30600
N1717       N  0.96228253  0.24659946  0.24511326     0.13600
C1718       C  0.95223684  0.23118191  0.21507859    -0.30600
C1719       C  0.86980668  0.20333317  0.28435312    -0.30900
N1720       N  0.85424725  0.21046489  0.25315087     0.14100
H1721       H  0.86637726  0.21186602  0.31279307     0.16700
C1722       C  0.86767732  0.20065822  0.22169142    -0.30900
H1723       H  0.86256269  0.20706844  0.19261367     0.16700
H1724       H  0.95687282  0.23592742  0.18524174     0.16700
H1725       H  0.95670140  0.13025639  0.31361694     0.16800
H1726       H  0.95838649  0.24166596  0.30672985     0.16700
C1727       C  0.87614642  0.42075441  0.45796580     0.30600
C1728       C  0.87619444  0.42110518  0.03690229     0.30600
C1729       C  0.90481906  0.42866165  0.47719222    -0.05600
C1730       C  0.85608942  0.44231373  0.47706348    -0.06400
C1731       C  0.86693619  0.39282988  0.47763621    -0.06300
C1732       C  0.90473974  0.42875852  0.01761536    -0.05600
C1733       C  0.85560207  0.44192659  0.01725107    -0.06400
C1734       C  0.86698687  0.39301929  0.01799984    -0.06300
C1735       C  0.92526824  0.44833121  0.02895406    -0.31700
N1736       N  0.93822669  0.45935837  0.99750013     0.14800
C1737       C  0.92552755  0.44827348  0.46599052    -0.31700
H1738       H  0.92921453  0.45592524  0.43698772     0.16800
C1739       C  0.83541141  0.46108019  0.02871312    -0.30600
N1740       N  0.82487268  0.47401932  0.99703980     0.13600
C1741       C  0.83725598  0.46287049  0.46534838    -0.30600
C1742       C  0.84695916  0.37296790  0.02963743    -0.30900
N1743       N  0.83557492  0.36022754  0.99842649     0.14100
H1744       H  0.83948920  0.36947725  0.05876029     0.16700
C1745       C  0.84676529  0.37268881  0.46663318    -0.30900
H1746       H  0.83953625  0.36859475  0.43762185     0.16700
H1747       H  0.83267196  0.46932054  0.43614791     0.16700
H1748       H  0.92901499  0.45561641  0.05798658     0.16800
H1749       H  0.82871381  0.46548931  0.05782244     0.16700
C1750       C  0.87388730  0.42429711  0.20787492     0.30600
C1751       C  0.87326001  0.42272866  0.28705273     0.30600
C1752       C  0.90199103  0.43309172  0.22806467    -0.05600
C1753       C  0.85148573  0.44280656  0.22747189    -0.06400
C1754       C  0.86669372  0.39517827  0.22655662    -0.06300
C1755       C  0.90155296  0.43253695  0.26839360    -0.05600
C1756       C  0.85233347  0.44319946  0.26755486    -0.06400
C1757       C  0.86751412  0.39426081  0.26690084    -0.06300
C1758       C  0.92278294  0.45104897  0.28050585    -0.31700
N1759       N  0.93648257  0.46189422  0.24939505     0.14800
C1760       C  0.92401427  0.45132302  0.21734609    -0.31700
H1761       H  0.92914188  0.45815860  0.18838758     0.16800
C1762       C  0.83427756  0.46419543  0.27920251    -0.30600
N1763       N  0.82098187  0.47480343  0.24783869     0.13600
C1764       C  0.83062113  0.46136381  0.21617620    -0.30600
C1765       C  0.85168623  0.37090395  0.27859259    -0.30900
N1766       N  0.83950788  0.35879727  0.24743675     0.14100
H1767       H  0.84612318  0.36553918  0.30797747     0.16700
C1768       C  0.84761097  0.37384194  0.21588605    -0.30900
H1769       H  0.83857192  0.37087282  0.18753681     0.16700
H1770       H  0.82367355  0.46569543  0.18711383     0.16700
H1771       H  0.92636289  0.45812358  0.30969314     0.16800
H1772       H  0.83102162  0.47144196  0.30830748     0.16700
Zn1773     Zn  0.98731140  0.03422723  0.03012558     1.49700
Zn1774     Zn  0.52873681  0.06557403  0.46978254     1.49400
Zn1775     Zn  0.55555983  0.02429781  0.03252099     1.49100
Zn1776     Zn  0.51884582  0.49751909  0.46686157     1.49500
O1777       O  0.52248673  0.03061349  0.99991582    -1.83600
O1778       O  0.96805494  0.07213233  0.02038605    -0.74200
O1779       O  0.56835206  0.08286575  0.47829894    -0.74000
O1780       O  0.54396854  0.02697660  0.08708741    -0.73500
O1781       O  0.49788750  0.09438136  0.48013831    -0.74200
O1782       O  0.49695003  0.03351434  0.08602481    -0.73800
O1783       O  0.58603781  0.05409249  0.02285611    -0.74400
O1784       O  0.55032488  0.46912237  0.47392123    -0.73800
O1785       O  0.52651292  0.05664316  0.41408578    -0.74500
O1786       O  0.57328910  0.48561986  0.02499320    -0.73900
O1787       O  0.51975363  0.00979798  0.41304712    -0.74400
O1788       O  0.98173141  0.47676145  0.47478383    -0.74300
O1789       O  0.95986623  0.00104172  0.02046069    -0.74100
C1790       C  0.97513812  0.09384817  0.00032770     0.77700
C1791       C  0.58855254  0.07552084  0.00059068     0.78200
C1792       C  0.52030352  0.03058107  0.10413155     0.77200
C1793       C  0.56961431  0.46669744  0.99941585     0.77500
C1794       C  0.52294086  0.03349857  0.39608372     0.78700
C1795       C  0.96078557  0.48013638  0.99743777     0.77700
Zn1796     Zn  0.51677168  0.49868292  0.28350597     1.49700
Zn1797     Zn  0.98710091  0.03652670  0.21945807     1.49400
Zn1798     Zn  0.52846122  0.06613909  0.28094828     1.49100
Zn1799     Zn  0.55483078  0.02492099  0.21802476     1.49500
O1800       O  0.52171848  0.03176156  0.25036385    -1.83600
O1801       O  0.97942246  0.47874427  0.27439023    -0.74200
O1802       O  0.96824765  0.07431785  0.23076762    -0.75600
O1803       O  0.52749310  0.05675298  0.33658646    -0.73500
O1804       O  0.95921613  0.00351341  0.22743835    -0.74200
O1805       O  0.51786986  0.01038569  0.33753950    -0.73800
O1806       O  0.49748622  0.09490499  0.27297343    -0.74400
O1807       O  0.58501769  0.05518591  0.22586544    -0.73800
O1808       O  0.49704653  0.03599104  0.16360337    -0.74500
O1809       O  0.56742038  0.08378073  0.27036517    -0.73900
O1810       O  0.54346307  0.02639216  0.16332732    -0.74400
O1811       O  0.57224330  0.48617958  0.22718343    -0.74300
O1812       O  0.54740942  0.46954069  0.27685196    -0.74100
C1813       C  0.95927352  0.48239736  0.25051762     0.77700
C1814       C  0.97498797  0.09512575  0.25244302     0.78200
C1815       C  0.52268418  0.03368742  0.35456408     0.77200
C1816       C  0.58738583  0.07675225  0.24759754     0.77500
C1817       C  0.52019102  0.03109953  0.14586954     0.78700
C1818       C  0.56728509  0.46695866  0.25227030     0.77700
C1819       C  0.61116241  0.37322675  0.46156488     0.30600
C1820       C  0.61244458  0.37528232  0.04057935     0.30600
C1821       C  0.60985013  0.40320114  0.47935372    -0.05600
C1822       C  0.58579652  0.35863846  0.48237459    -0.06400
C1823       C  0.63754417  0.36055110  0.48119953    -0.06300
C1824       C  0.61102699  0.40422162  0.01982148    -0.05600
C1825       C  0.58691893  0.35886272  0.02251261    -0.06400
C1826       C  0.63763137  0.36047847  0.02112249    -0.06300
C1827       C  0.59727696  0.42863878  0.03087491    -0.31700
N1828       N  0.58749100  0.44220315  0.49929684     0.14800
C1829       C  0.59392309  0.42640458  0.46818001    -0.31700
H1830       H  0.58538349  0.43010209  0.43971318     0.16800
C1831       C  0.56478306  0.34157037  0.03529099    -0.30600
N1832       N  0.54971103  0.33221907  0.50445248     0.13600
C1833       C  0.56172183  0.34326053  0.47213998    -0.30600
C1834       C  0.66044820  0.34419146  0.03253563    -0.30900
N1835       N  0.67532238  0.33646065  0.50089153     0.14100
H1836       H  0.66588436  0.33829789  0.06170411     0.16700
C1837       C  0.66158425  0.34634736  0.46930929    -0.30900
H1838       H  0.66777218  0.34220903  0.43990972     0.16700
H1839       H  0.55433905  0.33891194  0.44328869     0.16700
H1840       H  0.59163394  0.43417370  0.06004406     0.16800
H1841       H  0.56069629  0.33487122  0.06459601     0.16700
C1842       C  0.61203669  0.37297289  0.29051521     0.30600
C1843       C  0.61274140  0.37498001  0.21132404     0.30600
C1844       C  0.64068568  0.36588173  0.27116896    -0.05600
C1845       C  0.59107997  0.35243117  0.26993959    -0.06400
C1846       C  0.60371518  0.40131814  0.27182543    -0.06300
C1847       C  0.64133643  0.36704554  0.23087249    -0.05600
C1848       C  0.59230223  0.35272614  0.22977994    -0.06400
C1849       C  0.60516508  0.40265668  0.23194623    -0.06300
C1850       C  0.66482379  0.35139866  0.21974309    -0.31700
N1851       N  0.67856081  0.34180080  0.25145930     0.14800
C1852       C  0.66347674  0.34962320  0.28283637    -0.31700
H1853       H  0.66773356  0.34254355  0.31189483     0.16800
C1854       C  0.57228378  0.33324251  0.21689413    -0.30600
N1855       N  0.55773593  0.32264749  0.24759358     0.13600
C1856       C  0.56862055  0.33449060  0.28000245    -0.30600
C1857       C  0.59379147  0.42827475  0.22074481    -0.30900
N1858       N  0.58395783  0.44165071  0.25242840     0.14100
H1859       H  0.59028829  0.43530311  0.19147607     0.16700
C1860       C  0.58914264  0.42503927  0.28356568    -0.30900
H1861       H  0.58188861  0.42938331  0.31246012     0.16700
H1862       H  0.56014094  0.33075815  0.30851824     0.16700
H1863       H  0.67008938  0.34506897  0.19077208     0.16800
H1864       H  0.56770810  0.32795400  0.18727515     0.16700
C1865       C  0.68763721  0.10944383  0.03984180     0.30600
C1866       C  0.68789467  0.11098351  0.46043311     0.30600
C1867       C  0.69481429  0.13863574  0.02100565    -0.05600
C1868       C  0.70842727  0.08966209  0.01958963    -0.06400
C1869       C  0.65884806  0.10264902  0.02003095    -0.06300
C1870       C  0.69471138  0.13930150  0.48073310    -0.05600
C1871       C  0.70828831  0.09022697  0.47970196    -0.06400
C1872       C  0.65887215  0.10317289  0.47973165    -0.06300
C1873       C  0.70106202  0.16677165  0.46971022    -0.31700
N1874       N  0.70630399  0.18243705  0.50149287     0.14800
C1875       C  0.70163992  0.16591400  0.03295478    -0.31700
H1876       H  0.70442653  0.17314835  0.06216825     0.16800
C1877       C  0.72762263  0.07055047  0.46733077    -0.30600
N1878       N  0.73927333  0.05803827  0.49865424     0.13600
C1879       C  0.72793514  0.06963982  0.03076365    -0.30600
C1880       C  0.63131126  0.09613875  0.46826938    -0.30900
N1881       N  0.61521531  0.09085411  0.50003245     0.14100
H1882       H  0.62364417  0.09367050  0.43915198     0.16700
C1883       C  0.63146384  0.09572913  0.03154660    -0.30900
H1884       H  0.62384055  0.09352282  0.06074669     0.16700
H1885       H  0.73325536  0.06367274  0.05994143     0.16700
H1886       H  0.70270002  0.17484798  0.44064880     0.16800
H1887       H  0.73273226  0.06552831  0.43780552     0.16700
C1888       C  0.68527156  0.11207570  0.28979482     0.30600
C1889       C  0.68688410  0.11261149  0.21038939     0.30600
C1890       C  0.69245344  0.14110719  0.27066000    -0.05600
C1891       C  0.70663380  0.09239284  0.27055006    -0.06400
C1892       C  0.65680671  0.10496048  0.26927217    -0.06300
C1893       C  0.69303566  0.14135316  0.23033033    -0.05600
C1894       C  0.70700232  0.09237165  0.23073895    -0.06400
C1895       C  0.65775941  0.10459904  0.22898250    -0.06300
C1896       C  0.69950967  0.16879475  0.21916243    -0.31700
N1897       N  0.70405930  0.18480775  0.25090385     0.14800
C1898       C  0.69894042  0.16847666  0.28244736    -0.31700
H1899       H  0.70141318  0.17579426  0.31167291     0.16800
C1900       C  0.72601869  0.07221796  0.21927169    -0.30600
N1901       N  0.73726280  0.06018568  0.25115812     0.13600
C1902       C  0.72596314  0.07252748  0.28270188    -0.30600
C1903       C  0.63082750  0.09654668  0.21664421    -0.30900
N1904       N  0.61385262  0.09231192  0.24776611     0.14100
H1905       H  0.62391055  0.09327261  0.18733006     0.16700
C1906       C  0.62903467  0.09855442  0.27984161    -0.30900
H1907       H  0.62074801  0.09689224  0.30878842     0.16700
H1908       H  0.73078259  0.06679146  0.31213160     0.16700
H1909       H  0.70190291  0.17655199  0.19003110     0.16800
H1910       H  0.73120211  0.06653380  0.19000211     0.16700
Zn1911     Zn  0.77271280  0.24210242  0.46897928     1.49700
Zn1912     Zn  0.76057104  0.30932622  0.47012212     1.49400
Zn1913     Zn  0.73167620  0.26808592  0.03267440     1.49100
Zn1914     Zn  0.79986488  0.27979220  0.03360422     1.49500
O1915       O  0.76603027  0.27493730  0.00131828    -1.83600
O1916       O  0.77004970  0.25305217  0.41409697    -0.74200
O1917       O  0.72180837  0.32708973  0.47999420    -0.74000
O1918       O  0.71484099  0.22848336  0.02450855    -0.73500
O1919       O  0.76089799  0.29931183  0.41462118    -0.74200
O1920       O  0.74282302  0.21182240  0.47844170    -0.73800
O1921       O  0.70143744  0.29754829  0.02222729    -0.74400
O1922       O  0.78867060  0.28038881  0.08833210    -0.73800
O1923       O  0.79334448  0.33774912  0.47768414    -0.74500
O1924       O  0.74181060  0.27126143  0.08823778    -0.73900
O1925       O  0.81973473  0.31676419  0.02239038    -0.74400
O1926       O  0.82886649  0.24856923  0.02737502    -0.74300
O1927       O  0.81182500  0.22498180  0.47721442    -0.74100
C1928       C  0.76513069  0.27627589  0.39694090     0.77700
C1929       C  0.70061926  0.31962574  0.00097595     0.78200
C1930       C  0.72172384  0.20890403  0.00130511     0.77200
C1931       C  0.76512420  0.27640975  0.10568145     0.77500
C1932       C  0.81520249  0.33734218  0.99953913     0.78700
C1933       C  0.83114257  0.22909939  0.00240866     0.77700
Zn1934     Zn  0.77200244  0.24285830  0.21933951     1.49700
Zn1935     Zn  0.80025450  0.27999807  0.28381426     1.49400
Zn1936     Zn  0.76244929  0.31049884  0.21995890     1.49100
Zn1937     Zn  0.73147914  0.27019319  0.28222845     1.49500
O1938       O  0.76633313  0.27604200  0.25135817    -1.83600
O1939       O  0.81061334  0.22484869  0.22748712    -0.74200
O1940       O  0.82198764  0.31614861  0.27266527    -0.74000
O1941       O  0.76217655  0.30012012  0.16440118    -0.73500
O1942       O  0.82809180  0.24815043  0.27760602    -0.74200
O1943       O  0.76928250  0.25347453  0.16454595    -0.73800
O1944       O  0.79671303  0.33727417  0.22696406    -0.74400
O1945       O  0.70259199  0.30127307  0.27228393    -0.73800
O1946       O  0.78886437  0.28006366  0.33847501    -0.74500
O1947       O  0.72453946  0.33012653  0.23052670    -0.73900
O1948       O  0.74172808  0.27242003  0.33785011    -0.74400
O1949       O  0.71315404  0.23099929  0.27356767    -0.74300
O1950       O  0.74153468  0.21330112  0.22875396    -0.74100
C1951       C  0.82994806  0.22861191  0.25274025     0.77700
C1952       C  0.81848311  0.33642723  0.24895729     0.78200
C1953       C  0.76528504  0.27672976  0.14705972     0.77200
C1954       C  0.70296567  0.32361808  0.25144189     0.77500
C1955       C  0.76514468  0.27647471  0.35555996     0.78700
C1956       C  0.71997093  0.21103173  0.25088020     0.77700
C1957       C  0.68965403  0.11018547  0.41612892    -0.05600
C1958       C  0.67324151  0.08967536  0.39650190    -0.16700
C1959       C  0.67254186  0.08823197  0.35624690     0.11600
C1960       C  0.68655472  0.10980486  0.33402536    -0.05500
C1961       C  0.70758062  0.12583102  0.35345767    -0.16700
C1962       C  0.71043089  0.12513929  0.39359071     0.11700
S1963       S  0.65674935  0.05597091  0.33727391    -0.31700
S1964       S  0.74352747  0.14020288  0.41169027    -0.31700
H1965       H  0.74510310  0.12445208  0.44574297     0.29700
H1966       H  0.67203294  0.05496128  0.30280732     0.29700
H1967       H  0.66238463  0.07311026  0.41267822     0.20300
H1968       H  0.72360200  0.13736832  0.33705740     0.20300
C1969       C  0.68911606  0.10730792  0.08413034    -0.05600
C1970       C  0.70956806  0.12397092  0.10364552    -0.16700
C1971       C  0.71096272  0.12494081  0.14391164     0.11600
C1972       C  0.68954026  0.11070702  0.16618068    -0.05500
C1973       C  0.67411617  0.08917581  0.14695498    -0.16700
C1974       C  0.67462558  0.08636623  0.10680442     0.11700
S1975       S  0.74309572  0.14129161  0.16299347    -0.31700
S1976       S  0.65987778  0.05330736  0.08880961    -0.31700
H1977       H  0.67449538  0.05264128  0.05382454     0.29700
H1978       H  0.74429559  0.12613676  0.19757531     0.29700
H1979       H  0.72606608  0.13493442  0.08742093     0.20300
H1980       H  0.66317959  0.07288289  0.16349716     0.20300
C1981       C  0.61244970  0.37142287  0.41726560    -0.05600
C1982       C  0.62316132  0.39510677  0.39671883    -0.16700
C1983       C  0.62510043  0.39556315  0.35656939     0.11600
C1984       C  0.61357926  0.37266550  0.33482014    -0.05500
C1985       C  0.60676742  0.34763163  0.35521868    -0.16700
C1986       C  0.60705532  0.34626485  0.39558953     0.11700
S1987       S  0.64461411  0.42535455  0.33618023    -0.31700
S1988       S  0.60218299  0.31093631  0.41542949    -0.31700
H1989       H  0.61437802  0.31520913  0.45155731     0.29700
H1990       H  0.65985092  0.40950685  0.30931405     0.29700
H1991       H  0.63174111  0.41319936  0.41207644     0.20300
H1992       H  0.60285253  0.32821042  0.33964354     0.20300
C1993       C  0.61318542  0.37789728  0.08479415    -0.05600
C1994       C  0.58721082  0.37841442  0.10502739    -0.16700
C1995       C  0.58587200  0.37899800  0.14526101     0.11600
C1996       C  0.61166543  0.37772699  0.16711034    -0.05500
C1997       C  0.63730078  0.38259869  0.14673389    -0.16700
C1998       C  0.63824488  0.38397590  0.10645318     0.11700
S1999       S  0.55005139  0.38306291  0.16421016    -0.31700
S2000       S  0.67155184  0.39663762  0.08599834    -0.31700
H2001       H  0.65947947  0.41166775  0.05536702     0.29700
H2002       H  0.55582640  0.38903047  0.20261337     0.29700
H2003       H  0.56739081  0.37977871  0.08929919     0.20300
H2004       H  0.65676850  0.38729498  0.16221587     0.20300
C2005       C  0.80012429  0.99666616  0.24817986    -0.05600
C2006       C  0.77303413  0.99121304  0.23261204    -0.16700
C2007       C  0.75169961  0.01155826  0.23433589     0.11600
C2008       C  0.75777735  0.03806673  0.25129808    -0.05500
C2009       C  0.78490439  0.04361288  0.26660936    -0.16700
C2010       C  0.80629543  0.02323119  0.26486266     0.11700
S2011       S  0.71695571  0.00233891  0.21548340    -0.31700
S2012       S  0.84189209  0.03180781  0.28147827    -0.31700
H2013       H  0.83591640  0.55921500  0.29501305     0.29700
H2014       H  0.70143770  0.01933825  0.24094322     0.29700
H2015       H  0.76842085  0.47073509  0.22005149     0.20300
H2016       H  0.78938782  0.06426494  0.27882589     0.20300
C2017       C  0.76044103  0.03643016  0.49774771    -0.05600
C2018       C  0.78739912  0.04293247  0.48226086    -0.16700
C2019       C  0.80910702  0.02285947  0.48229635     0.11600
C2020       C  0.80355468  0.99548306  0.99729103    -0.05500
C2021       C  0.77656802  0.98897284  0.01272407    -0.16700
C2022       C  0.75486730  0.00905197  0.01270283     0.11700
S2023       S  0.84372648  0.03369001  0.46441106    -0.31700
S2024       S  0.72028054  0.99829227  0.03080460    -0.31700
H2025       H  0.70442772  0.01639472  0.00699859     0.29700
H2026       H  0.85950076  0.51606767  0.48902214     0.29700
H2027       H  0.79168344  0.06405056  0.47105595     0.20300
H2028       H  0.77225996  0.46786954  0.02404227     0.20300
C2029       C  0.87576630  0.41894774  0.41366144    -0.05600
C2030       C  0.84952912  0.42164301  0.39453414    -0.16700
C2031       C  0.84725260  0.42115687  0.35434905     0.11600
C2032       C  0.87256735  0.42045512  0.33139480    -0.05500
C2033       C  0.89800642  0.41338110  0.35062600    -0.16700
C2034       C  0.89952678  0.41112466  0.39080753     0.11700
S2035       S  0.81084337  0.41901082  0.33688745    -0.31700
S2036       S  0.93107862  0.39453365  0.40971201    -0.31700
H2037       H  0.91655314  0.37911419  0.43855460     0.29700
H2038       H  0.81577838  0.40863351  0.30005943     0.29700
H2039       H  0.83008640  0.42271937  0.41124907     0.20300
H2040       H  0.91673005  0.40797343  0.33410864     0.20300
C2041       C  0.87783621  0.42162801  0.08121383    -0.05600
C2042       C  0.87543508  0.44776993  0.10010278    -0.16700
C2043       C  0.87533114  0.45011523  0.14029462     0.11600
C2044       C  0.87614154  0.42501222  0.16350089    -0.05500
C2045       C  0.88309703  0.39964644  0.14443857    -0.16700
C2046       C  0.88527164  0.39796651  0.10431835     0.11700
S2047       S  0.87585016  0.48641995  0.15726404    -0.31700
S2048       S  0.90086403  0.36601886  0.08574715    -0.31700
H2049       H  0.91674977  0.37977281  0.05669810     0.29700
H2050       H  0.88253973  0.48237073  0.19587806     0.29700
H2051       H  0.87480547  0.46708747  0.08323024     0.20300
H2052       H  0.88852935  0.38099514  0.16096504     0.20300
C2053       C  0.53347493  0.30364679  0.24585530    -0.05600
C2054       C  0.50703707  0.31235214  0.26045335    -0.16700
C2055       C  0.48280950  0.29451875  0.25876628     0.11600
C2056       C  0.48513034  0.26721466  0.24278140    -0.05500
C2057       C  0.51136625  0.25884428  0.22738694    -0.16700
C2058       C  0.53552131  0.27658315  0.22905889     0.11700
S2059       S  0.94946221  0.30782974  0.27654975    -0.31700
S2060       S  0.56869824  0.26289909  0.21126201    -0.31700
H2061       H  0.58628117  0.27736738  0.23765317     0.29700
H2062       H  0.93172466  0.29004199  0.25434037     0.29700
H2063       H  0.50526514  0.33331861  0.27273191     0.20300
H2064       H  0.51328546  0.23774438  0.21556650     0.20300
C2065       C  0.48399315  0.26891558  0.50509858    -0.05600
C2066       C  0.51089815  0.26308352  0.02060742    -0.16700
C2067       C  0.53283627  0.28346163  0.02025150     0.11600
C2068       C  0.52764612  0.31076109  0.00516442    -0.05500
C2069       C  0.50059883  0.31677298  0.49004341    -0.16700
C2070       C  0.47863484  0.29619450  0.49014573     0.11700
S2071       S  0.56744401  0.27283584  0.03724370    -0.31700
S2072       S  0.94417394  0.30606109  0.47176980    -0.31700
H2073       H  0.92815243  0.28576561  0.49262598     0.29700
H2074       H  0.58309582  0.28888375  0.01007524     0.29700
H2075       H  0.51507542  0.24203322  0.03171465     0.20300
H2076       H  0.49657032  0.33773118  0.47854840     0.20300
C2077       C  0.92306390  0.18243939  0.41807847    -0.05600
C2078       C  0.94827187  0.18960016  0.39785702    -0.16700
C2079       C  0.94953973  0.18932041  0.35726111     0.11600
C2080       C  0.92422805  0.18432097  0.33563079    -0.05500
C2081       C  0.90046077  0.17337980  0.35597417    -0.16700
C2082       C  0.90022755  0.17076529  0.39607073     0.11700
S2083       S  0.98415314  0.19189001  0.33434745    -0.31700
S2084       S  0.87185386  0.14876059  0.41574872    -0.31700
H2085       H  0.88899620  0.13545925  0.44339229     0.29700
H2086       H  0.00018480  0.19811389  0.36748845     0.29700
H2087       H  0.96749390  0.19407876  0.41403293     0.20300
H2088       H  0.88238727  0.16468347  0.34041791     0.20300
C2089       C  0.92388534  0.18058438  0.08589643    -0.05600
C2090       C  0.89927220  0.17061179  0.10537295    -0.16700
C2091       C  0.89791018  0.16872214  0.14556936     0.11600
C2092       C  0.92084386  0.17952017  0.16809014    -0.05500
C2093       C  0.94676313  0.18498206  0.14880815    -0.16700
C2094       C  0.94894483  0.18484857  0.10859199     0.11700
S2095       S  0.86824474  0.14836492  0.16485279    -0.31700
S2096       S  0.98491169  0.18921374  0.09018921    -0.31700
H2097       H  0.98104090  0.17668356  0.05427476     0.29700
H2098       H  0.88423837  0.13540875  0.19408375     0.29700
H2099       H  0.88120766  0.16261831  0.08912899     0.20300
H2100       H  0.96596424  0.18879702  0.16543754     0.20300
C2101       C  0.92303140  0.18282418  0.54161627     0.30600
C2102       C  0.92278274  0.18380287  0.96247806     0.30600
C2103       C  0.89334439  0.18629807  0.52268954    -0.05600
C2104       C  0.93934587  0.20774154  0.52249339    -0.06400
C2105       C  0.93478999  0.15656848  0.52142103    -0.06300
C2106       C  0.89324808  0.18669373  0.98207236    -0.05600
C2107       C  0.93959550  0.20819966  0.98226688    -0.06400
C2108       C  0.93529215  0.15742251  0.98159393    -0.06300
C2109       C  0.87002852  0.20270150  0.97108242    -0.31700
N2110       N  0.85581892  0.21135630  0.50262167     0.14800
C2111       C  0.87050188  0.20278266  0.53396644    -0.31700
H2112       H  0.86621901  0.20993702  0.56289287     0.16800
C2113       C  0.95459753  0.23242535  0.97138091    -0.30600
N2114       N  0.96312412  0.24634853  0.00359468     0.13600
C2115       C  0.95340872  0.23184557  0.53476282    -0.30600
C2116       C  0.94984056  0.13387972  0.96938068    -0.30900
N2117       N  0.95735639  0.11838665  0.50070110     0.14100
H2118       H  0.95524528  0.12878341  0.93998604     0.16700
C2119       C  0.94804540  0.13187065  0.53265205    -0.30900
H2120       H  0.95231811  0.12521645  0.56189027     0.16700
H2121       H  0.95689101  0.23828567  0.56419813     0.16700
H2122       H  0.86550653  0.20997609  0.94219179     0.16800
H2123       H  0.95952850  0.23926754  0.94236672     0.16700
C2124       C  0.92030882  0.18248177  0.71222846     0.30600
C2125       C  0.92289339  0.18519728  0.79116555     0.30600
C2126       C  0.93385333  0.15735718  0.73270836    -0.05600
C2127       C  0.93685446  0.20820781  0.72918451    -0.06400
C2128       C  0.89126474  0.18525553  0.73272656    -0.06300
C2129       C  0.93551914  0.15873149  0.77241561    -0.05600
C2130       C  0.93782075  0.20983192  0.76930238    -0.06400
C2131       C  0.89255275  0.18669535  0.77331911    -0.06300
C2132       C  0.95055417  0.13527897  0.78440503    -0.31700
N2133       N  0.95730360  0.11968271  0.75298859     0.14800
C2134       C  0.94705536  0.13290234  0.72131063    -0.31700
H2135       H  0.95023045  0.12594973  0.69202951     0.16800
C2136       C  0.95300051  0.23422687  0.77825115    -0.30600
N2137       N  0.96227264  0.24660296  0.74510904     0.13600
C2138       C  0.95222824  0.23118381  0.71507529    -0.30600
C2139       C  0.86980144  0.20333285  0.78434839    -0.30900
N2140       N  0.85424282  0.21046442  0.75314532     0.14100
H2141       H  0.86637170  0.21186637  0.81278782     0.16700
C2142       C  0.86767325  0.20065664  0.72168664    -0.30900
H2143       H  0.86255936  0.20706611  0.69260849     0.16700
H2144       H  0.95686358  0.23592910  0.68523829     0.16700
H2145       H  0.95669518  0.13025691  0.81361836     0.16800
H2146       H  0.95837750  0.24167019  0.80672583     0.16700
C2147       C  0.87614476  0.42076520  0.95796660     0.30600
C2148       C  0.87619262  0.42109861  0.53690124     0.30600
C2149       C  0.90481801  0.42867214  0.97719183    -0.05600
C2150       C  0.85608779  0.44232300  0.97706822    -0.06400
C2151       C  0.86693616  0.39283931  0.97763530    -0.06300
C2152       C  0.90473908  0.42875014  0.51761591    -0.05600
C2153       C  0.85560198  0.44192000  0.51724630    -0.06400
C2154       C  0.86698472  0.39301208  0.51800071    -0.06300
C2155       C  0.92526591  0.44832491  0.52895399    -0.31700
N2156       N  0.93822463  0.45935162  0.49750001     0.14800
C2157       C  0.92552753  0.44828296  0.96599029    -0.31700
H2158       H  0.92921425  0.45593561  0.93698794     0.16800
C2159       C  0.83541166  0.46107543  0.52870391    -0.30600
N2160       N  0.82487425  0.47401199  0.49702759     0.13600
C2161       C  0.83725350  0.46288065  0.96535783    -0.30600
C2162       C  0.84695509  0.37296253  0.52963812    -0.30900
N2163       N  0.83557218  0.36022101  0.49842719     0.14100
H2164       H  0.83948328  0.36947376  0.55876053     0.16700
C2165       C  0.84676538  0.37269794  0.96663247    -0.30900
H2166       H  0.83953451  0.36860551  0.93762153     0.16700
H2167       H  0.83266862  0.46933347  0.93615879     0.16700
H2168       H  0.92901103  0.45561198  0.55798601     0.16800
H2169       H  0.82871319  0.46548714  0.55781213     0.16700
C2170       C  0.87388732  0.42429930  0.70787383     0.30600
C2171       C  0.87325715  0.42273419  0.78705210     0.30600
C2172       C  0.90199286  0.43308681  0.72806417    -0.05600
C2173       C  0.85149061  0.44281593  0.72746850    -0.06400
C2174       C  0.86668589  0.39518309  0.72655763    -0.06300
C2175       C  0.90155325  0.43253409  0.76839361    -0.05600
C2176       C  0.85233689  0.44321012  0.76755155    -0.06400
C2177       C  0.86750391  0.39426727  0.76690152    -0.06300
C2178       C  0.92278325  0.45104633  0.78050504    -0.31700
N2179       N  0.93648467  0.46188873  0.74939422     0.14800
C2180       C  0.92401754  0.45131621  0.71734562    -0.31700
H2181       H  0.92914628  0.45815061  0.68838687     0.16800
C2182       C  0.83428345  0.46420910  0.77919649    -0.30600
N2183       N  0.82099102  0.47481865  0.74783092     0.13600
C2184       C  0.83062976  0.46137649  0.71617007    -0.30600
C2185       C  0.85167587  0.37091058  0.77859352    -0.30900
N2186       N  0.83950111  0.35880149  0.74743654     0.14100
H2187       H  0.84611165  0.36554631  0.80797809     0.16700
C2188       C  0.84760550  0.37384533  0.71588560    -0.30900
H2189       H  0.83856991  0.37087349  0.68753492     0.16700
H2190       H  0.82368304  0.46570701  0.68710702     0.16700
H2191       H  0.92636138  0.45812383  0.80969132     0.16800
H2192       H  0.83102561  0.47145537  0.80830114     0.16700
Zn2193     Zn  0.98731365  0.03422707  0.53012578     1.49700
Zn2194     Zn  0.52873336  0.06557462  0.96978619     1.49400
Zn2195     Zn  0.55556553  0.02430378  0.53252407     1.49100
Zn2196     Zn  0.51885361  0.49752013  0.96686312     1.49500
O2197       O  0.52249276  0.03061440  0.49991599    -1.83600
O2198       O  0.96805631  0.07213250  0.52038848    -0.74200
O2199       O  0.56835071  0.08286214  0.97830350    -0.74000
O2200       O  0.54397344  0.02698331  0.58709111    -0.73500
O2201       O  0.49788548  0.09438393  0.98014393    -0.74200
O2202       O  0.49695436  0.03351611  0.58602569    -0.73800
O2203       O  0.58603858  0.05410189  0.52285882    -0.74400
O2204       O  0.55033721  0.46912881  0.97392556    -0.73800
O2205       O  0.52650887  0.05664654  0.91408844    -0.74500
O2206       O  0.57327501  0.48560736  0.52499354    -0.73900
O2207       O  0.51974601  0.00980178  0.91304757    -0.74400
O2208       O  0.98173566  0.47676456  0.97478671    -0.74300
O2209       O  0.95986910  0.00103984  0.52046117    -0.74100
C2210       C  0.97513793  0.09384767  0.50032778     0.77700
C2211       C  0.58855283  0.07552832  0.50059014     0.78200
C2212       C  0.52030753  0.03058578  0.60413403     0.77200
C2213       C  0.56959941  0.46668682  0.49941415     0.77500
C2214       C  0.52293522  0.03350257  0.89608537     0.78700
C2215       C  0.96078220  0.48013117  0.49743695     0.77700
Zn2216     Zn  0.51677181  0.49868010  0.78350223     1.49700
Zn2217     Zn  0.98710259  0.03652788  0.71945742     1.49400
Zn2218     Zn  0.52845880  0.06614133  0.78094849     1.49100
Zn2219     Zn  0.55482872  0.02491794  0.71803054     1.49500
O2220       O  0.52171558  0.03176144  0.75036709    -1.83600
O2221       O  0.97942468  0.47873837  0.77438790    -0.74200
O2222       O  0.96824553  0.07431775  0.73076880    -0.75600
O2223       O  0.52748988  0.05675673  0.83658776    -0.73500
O2224       O  0.95922022  0.00351123  0.72743487    -0.74200
O2225       O  0.51786494  0.01038955  0.83754188    -0.73800
O2226       O  0.49748171  0.09490642  0.77297295    -0.74400
O2227       O  0.58501980  0.05517790  0.72587772    -0.73800
O2228       O  0.49704749  0.03599319  0.66360485    -0.74500
O2229       O  0.56741981  0.08378202  0.77036454    -0.73900
O2230       O  0.54346434  0.02639536  0.66333189    -0.74400
O2231       O  0.57224647  0.48618055  0.72718186    -0.74300
O2232       O  0.54740986  0.46953975  0.77684699    -0.74100
C2233       C  0.95927513  0.48239196  0.75051654     0.77700
C2234       C  0.97498372  0.09512572  0.75244544     0.78200
C2235       C  0.52267952  0.03369154  0.85456582     0.77200
C2236       C  0.58738754  0.07674766  0.74760366     0.77500
C2237       C  0.52019311  0.03110340  0.64587241     0.78700
C2238       C  0.56728717  0.46695906  0.75226762     0.77700
C2239       C  0.61116694  0.37323548  0.96156450     0.30600
C2240       C  0.61244051  0.37527543  0.54058027     0.30600
C2241       C  0.60986256  0.40321039  0.97935372    -0.05600
C2242       C  0.58579680  0.35865348  0.98237278    -0.06400
C2243       C  0.63754537  0.36055323  0.98119913    -0.06300
C2244       C  0.61101502  0.40421342  0.51982110    -0.05600
C2245       C  0.58691930  0.35884879  0.52251468    -0.06400
C2246       C  0.63763103  0.36047779  0.52112321    -0.06300
C2247       C  0.59726178  0.42862861  0.53087404    -0.31700
N2248       N  0.58750863  0.44221556  0.99929802     0.14800
C2249       C  0.59393936  0.42641674  0.96818086    -0.31700
H2250       H  0.58539924  0.43011505  0.93971454     0.16800
C2251       C  0.56478600  0.34155438  0.53529510    -0.30600
N2252       N  0.54970762  0.33223700  0.00444735     0.13600
C2253       C  0.56172049  0.34327848  0.97213620    -0.30600
C2254       C  0.66044882  0.34419215  0.53253644    -0.30900
N2255       N  0.67532273  0.33646122  0.00089104     0.14100
H2256       H  0.66588509  0.33829878  0.56170488     0.16700
C2257       C  0.66158553  0.34634943  0.96930884    -0.30900
H2258       H  0.66777523  0.34221391  0.93990926     0.16700
H2259       H  0.55433941  0.33892977  0.94328415     0.16700
H2260       H  0.59162020  0.43416458  0.56004347     0.16800
H2261       H  0.56069911  0.33485722  0.56460090     0.16700
C2262       C  0.61203261  0.37297180  0.79051577     0.30600
C2263       C  0.61273615  0.37497664  0.71132459     0.30600
C2264       C  0.64068099  0.36587957  0.77116902    -0.05600
C2265       C  0.59107505  0.35242962  0.76994195    -0.06400
C2266       C  0.60371160  0.40131657  0.77182464    -0.06300
C2267       C  0.64133115  0.36704241  0.73087262    -0.05600
C2268       C  0.59229683  0.35272347  0.72978217    -0.06400
C2269       C  0.60516094  0.40265394  0.73194548    -0.06300
C2270       C  0.66481897  0.35139661  0.71974306    -0.31700
N2271       N  0.67855645  0.34179960  0.75145937     0.14800
C2272       C  0.66347261  0.34962201  0.78283663    -0.31700
H2273       H  0.66773024  0.34254332  0.81189514     0.16800
C2274       C  0.57227917  0.33323842  0.71689780    -0.30600
N2275       N  0.55773196  0.32264369  0.74759798     0.13600
C2276       C  0.56861630  0.33448836  0.78000608    -0.30600
C2277       C  0.59379067  0.42827318  0.72074315    -0.30900
N2278       N  0.58395967  0.44165121  0.75242652     0.14100
H2279       H  0.59028767  0.43530119  0.69147412     0.16700
C2280       C  0.58914297  0.42504001  0.78356446    -0.30900
H2281       H  0.58189022  0.42938585  0.81245900     0.16700
H2282       H  0.56013696  0.33075639  0.80852204     0.16700
H2283       H  0.67008481  0.34506734  0.69077189     0.16800
H2284       H  0.56770364  0.32794861  0.68727923     0.16700
C2285       C  0.68763972  0.10943787  0.53984160     0.30600
C2286       C  0.68789206  0.11098955  0.96043425     0.30600
C2287       C  0.69482141  0.13862842  0.52100504    -0.05600
C2288       C  0.70842607  0.08965234  0.51958897    -0.06400
C2289       C  0.65884958  0.10264855  0.52003040    -0.06300
C2290       C  0.69470399  0.13930887  0.98073388    -0.05600
C2291       C  0.70828940  0.09023673  0.97970288    -0.06400
C2292       C  0.65887061  0.10317340  0.97973238    -0.06300
C2293       C  0.70105590  0.16677886  0.96971087    -0.31700
N2294       N  0.70629970  0.18244394  0.00149334     0.14800
C2295       C  0.70164514  0.16590696  0.53295428    -0.31700
H2296       H  0.70442949  0.17314188  0.56216791     0.16800
C2297       C  0.72762586  0.07056245  0.96733137    -0.30600
N2298       N  0.73927795  0.05805157  0.99865471     0.13600
C2299       C  0.72793173  0.06962799  0.53076303    -0.30600
C2300       C  0.63131095  0.09613359  0.96827009    -0.30900
N2301       N  0.61521583  0.09084570  0.00003309     0.14100
H2302       H  0.62364408  0.09366487  0.93915262     0.16700
C2303       C  0.63146418  0.09573461  0.53154598    -0.30900
H2304       H  0.62384083  0.09352894  0.56074611     0.16700
H2305       H  0.73325248  0.06366167  0.55994093     0.16700
H2306       H  0.70269502  0.17485487  0.94064940     0.16800
H2307       H  0.73273496  0.06553989  0.93780615     0.16700
C2308       C  0.68527285  0.11207751  0.78979769     0.30600
C2309       C  0.68688663  0.11260814  0.71039206     0.30600
C2310       C  0.69245087  0.14110860  0.77065986    -0.05600
C2311       C  0.70663881  0.09239737  0.77055643    -0.06400
C2312       C  0.65680948  0.10495673  0.76927548    -0.06300
C2313       C  0.69303403  0.14135218  0.73033002    -0.05600
C2314       C  0.70700815  0.09237323  0.73074533    -0.06400
C2315       C  0.65776258  0.10459261  0.72898596    -0.06300
C2316       C  0.69950891  0.16879325  0.71915998    -0.31700
N2317       N  0.70405710  0.18480801  0.75090038     0.14800
C2318       C  0.69893706  0.16847861  0.78244498    -0.31700
H2319       H  0.70140942  0.17579758  0.81166995     0.16800
C2320       C  0.72603016  0.07222354  0.71928246    -0.30600
N2321       N  0.73727628  0.06019664  0.75117153     0.13600
C2322       C  0.72597268  0.07253801  0.78271268    -0.30600
C2323       C  0.63083059  0.09653860  0.71664894    -0.30900
N2324       N  0.61385562  0.09230552  0.74777139     0.14100
H2325       H  0.62391305  0.09326399  0.68733536     0.16700
C2326       C  0.62903764  0.09855033  0.77984596    -0.30900
H2327       H  0.62075100  0.09689045  0.80879317     0.16700
H2328       H  0.73079177  0.06680476  0.81214353     0.16700
H2329       H  0.70190437  0.17654871  0.69002816     0.16800
H2330       H  0.73121512  0.06653756  0.69001412     0.16700
Zn2331     Zn  0.77271236  0.24210658  0.96897806     1.49700
Zn2332     Zn  0.76057381  0.30933164  0.97012135     1.49400
Zn2333     Zn  0.73167212  0.26808150  0.53267278     1.49100
Zn2334     Zn  0.79986113  0.27978747  0.53360628     1.49500
O2335       O  0.76602748  0.27493246  0.50131912    -1.83600
O2336       O  0.77004763  0.25305712  0.91409584    -0.74200
O2337       O  0.72180933  0.32709280  0.97999267    -0.74000
O2338       O  0.71483994  0.22847756  0.52450727    -0.73500
O2339       O  0.76090232  0.29931814  0.91461931    -0.74200
O2340       O  0.74282110  0.21182684  0.97844098    -0.73800
O2341       O  0.70143327  0.29754400  0.52222436    -0.74400
O2342       O  0.78866452  0.28038851  0.58833226    -0.73800
O2343       O  0.79334683  0.33775538  0.97768471    -0.74500
O2344       O  0.74180462  0.27126034  0.58823629    -0.73900
O2345       O  0.81973107  0.31675856  0.52239175    -0.74400
O2346       O  0.82886376  0.24856422  0.52738063    -0.74300
O2347       O  0.81182443  0.22498484  0.97721229    -0.74100
C2348       C  0.76513152  0.27628132  0.89693928     0.77700
C2349       C  0.70061732  0.31962295  0.50097565     0.78200
C2350       C  0.72172537  0.20889845  0.50130476     0.77200
C2351       C  0.76511754  0.27641084  0.60568050     0.77500
C2352       C  0.81519951  0.33733607  0.49953963     0.78700
C2353       C  0.83114190  0.22909578  0.50241249     0.77700
Zn2354     Zn  0.77199860  0.24286016  0.71933622     1.49700
Zn2355     Zn  0.80025190  0.27999910  0.78381019     1.49400
Zn2356     Zn  0.76244466  0.31050065  0.71995782     1.49100
Zn2357     Zn  0.73147679  0.27019339  0.78222751     1.49500
O2358       O  0.76632965  0.27604330  0.75135593    -1.83600
O2359       O  0.81061065  0.22485131  0.72747875    -0.74200
O2360       O  0.82198559  0.31614914  0.77265951    -0.74000
O2361       O  0.76217082  0.30012308  0.66439936    -0.73500
O2362       O  0.82808695  0.24814909  0.77760238    -0.74200
O2363       O  0.76927516  0.25347722  0.66454478    -0.73800
O2364       O  0.79670706  0.33727705  0.72696430    -0.74400
O2365       O  0.70258879  0.30127252  0.77228338    -0.73800
O2366       O  0.78886334  0.28006876  0.83847166    -0.74500
O2367       O  0.72453533  0.33012741  0.73052708    -0.73900
O2368       O  0.74172761  0.27242127  0.83784937    -0.74400
O2369       O  0.71315204  0.23099929  0.77356515    -0.74300
O2370       O  0.74153201  0.21330194  0.72875012    -0.74100
C2371       C  0.82994420  0.22861232  0.75273406     0.77700
C2372       C  0.81847842  0.33642953  0.74895512     0.78200
C2373       C  0.76527786  0.27673225  0.64705841     0.77200
C2374       C  0.70296184  0.32361787  0.75144201     0.77500
C2375       C  0.76514432  0.27647899  0.85555803     0.78700
C2376       C  0.71996851  0.21103216  0.75087660     0.77700
C2377       C  0.68965263  0.11019117  0.91613073    -0.05600
C2378       C  0.67324371  0.08967814  0.89650417    -0.16700
C2379       C  0.67254529  0.08823377  0.85624949     0.11600
C2380       C  0.68655531  0.10980846  0.83402800    -0.05500
C2381       C  0.70757900  0.12583750  0.85346015    -0.16700
C2382       C  0.71042866  0.12514668  0.89359315     0.11700
S2383       S  0.65675782  0.05597010  0.83727701    -0.31700
S2384       S  0.74352397  0.14021323  0.91169293    -0.31700
H2385       H  0.74509915  0.12446675  0.94574922     0.29700
H2386       H  0.67204397  0.05496078  0.80281243     0.29700
H2387       H  0.66238914  0.07311165  0.91268067     0.20300
H2388       H  0.72359952  0.13737599  0.83705996     0.20300
C2389       C  0.68911811  0.10730223  0.58413100    -0.05600
C2390       C  0.70957096  0.12396421  0.60364642    -0.16700
C2391       C  0.71096578  0.12493468  0.64391279     0.11600
C2392       C  0.68954344  0.11070144  0.66618279    -0.05500
C2393       C  0.67411790  0.08917112  0.64695691    -0.16700
C2394       C  0.67462566  0.08636213  0.60680578     0.11700
S2395       S  0.74309798  0.14128785  0.66299361    -0.31700
S2396       S  0.65987034  0.05330672  0.58881015    -0.31700
H2397       H  0.67448878  0.05263748  0.55382584     0.29700
H2398       H  0.74429632  0.12613981  0.69758077     0.29700
H2399       H  0.72606923  0.13492726  0.58742170     0.20300
H2400       H  0.66318078  0.07287864  0.66349904     0.20300
C2401       C  0.61245299  0.37142942  0.91726571    -0.05600
C2402       C  0.62316529  0.39511123  0.89671548    -0.16700
C2403       C  0.62510209  0.39556472  0.85656586     0.11600
C2404       C  0.61357692  0.37266693  0.83482044    -0.05500
C2405       C  0.60676349  0.34763508  0.85522226    -0.16700
C2406       C  0.60705452  0.34627054  0.89559301     0.11700
S2407       S  0.64461788  0.42535245  0.83617071    -0.31700
S2408       S  0.60218042  0.31094315  0.91543671    -0.31700
H2409       H  0.61437242  0.31521665  0.95156605     0.29700
H2410       H  0.65985912  0.40949862  0.80931583     0.29700
H2411       H  0.63174770  0.41320399  0.91207025     0.20300
H2412       H  0.60284568  0.32821332  0.83964981     0.20300
C2413       C  0.61318026  0.37789179  0.58479505    -0.05600
C2414       C  0.58720536  0.37840626  0.60502812    -0.16700
C2415       C  0.58586654  0.37899172  0.64526177     0.11600
C2416       C  0.61166007  0.37772295  0.66711096    -0.05500
C2417       C  0.63729492  0.38259789  0.64673458    -0.16700
C2418       C  0.63823856  0.38397532  0.60645377     0.11700
S2419       S  0.55004627  0.38305742  0.66421164    -0.31700
S2420       S  0.67154215  0.39664453  0.58599749    -0.31700
H2421       H  0.65946480  0.41167497  0.55536993     0.29700
H2422       H  0.55582247  0.38902959  0.70261326     0.29700
H2423       H  0.56738515  0.37976741  0.58929964     0.20300
H2424       H  0.65676208  0.38729644  0.66221669     0.20300
C2425       C  0.80013524  0.99667552  0.74819769    -0.05600
C2426       C  0.77304556  0.99122378  0.73262821    -0.16700
C2427       C  0.75171160  0.01156895  0.73435331     0.11600
C2428       C  0.75778973  0.03807689  0.75131624    -0.05500
C2429       C  0.78491548  0.04362102  0.76663315    -0.16700
C2430       C  0.80630579  0.02323843  0.76488752     0.11700
S2431       S  0.71696742  0.00235017  0.71550151    -0.31700
S2432       S  0.84190068  0.03181154  0.78151351    -0.31700
H2433       H  0.83590119  0.55921679  0.79506258     0.29700
H2434       H  0.70145004  0.01934760  0.74096451     0.29700
H2435       H  0.76843599  0.47075073  0.72002229     0.20300
H2436       H  0.78939871  0.06427219  0.77885266     0.20300
C2437       C  0.76044411  0.03644219  0.99774771    -0.05600
C2438       C  0.78740528  0.04294511  0.98227121    -0.16700
C2439       C  0.80911138  0.02287012  0.98230643     0.11600
C2440       C  0.80355521  0.99547460  0.49729128    -0.05500
C2441       C  0.77657190  0.98896506  0.51273539    -0.16700
C2442       C  0.75486946  0.00904232  0.51271447     0.11700
S2443       S  0.84373421  0.03370040  0.96443256    -0.31700
S2444       S  0.72028707  0.99828286  0.53083139    -0.31700
H2445       H  0.70442864  0.01637714  0.50702070     0.29700
H2446       H  0.85949928  0.51607678  0.98904588     0.29700
H2447       H  0.79169308  0.06406481  0.97107425     0.20300
H2448       H  0.77225821  0.46785933  0.52401592     0.20300
C2449       C  0.87576399  0.41895977  0.91366194    -0.05600
C2450       C  0.84952706  0.42165820  0.89453456    -0.16700
C2451       C  0.84725004  0.42117054  0.85434929     0.11600
C2452       C  0.87256416  0.42046259  0.83139459    -0.05500
C2453       C  0.89800231  0.41338622  0.85062635    -0.16700
C2454       C  0.89952323  0.41113272  0.89080804     0.11700
S2455       S  0.81084071  0.41903104  0.83688732    -0.31700
S2456       S  0.93107520  0.39454221  0.90971306    -0.31700
H2457       H  0.91654987  0.37912277  0.93855569     0.29700
H2458       H  0.81577494  0.40864995  0.80006100     0.29700
H2459       H  0.83008463  0.42273766  0.91124947     0.20300
H2460       H  0.91672506  0.40797480  0.83410945     0.20300
C2461       C  0.87783330  0.42162310  0.58121289    -0.05600
C2462       C  0.87543494  0.44776633  0.60009928    -0.16700
C2463       C  0.87533484  0.45011410  0.64029093     0.11600
C2464       C  0.87614237  0.42501219  0.66349974    -0.05500
C2465       C  0.88309499  0.39964475  0.64443979    -0.16700
C2466       C  0.88526811  0.39796236  0.60431959     0.11700
S2467       S  0.87586540  0.48641993  0.65725617    -0.31700
S2468       S  0.90085786  0.36601248  0.58575133    -0.31700
H2469       H  0.91674433  0.37976362  0.55670060     0.29700
H2470       H  0.88255201  0.48237132  0.69587119     0.29700
H2471       H  0.87480593  0.46708291  0.58322465     0.20300
H2472       H  0.88852616  0.38099398  0.66096824     0.20300
C2473       C  0.53347127  0.30364239  0.74586038    -0.05600
C2474       C  0.50703276  0.31234806  0.76045583    -0.16700
C2475       C  0.48280507  0.29451485  0.75876705     0.11600
C2476       C  0.48512592  0.26721115  0.74278057    -0.05500
C2477       C  0.51136277  0.25884022  0.72738949    -0.16700
C2478       C  0.53551840  0.27657820  0.72906579     0.11700
S2479       S  0.94945718  0.30783384  0.77655053    -0.31700
S2480       S  0.56869737  0.26289168  0.71127948    -0.31700
H2481       H  0.58627701  0.27736202  0.73767255     0.29700
H2482       H  0.93171705  0.29004594  0.75434511     0.29700
H2483       H  0.50526054  0.33331452  0.77273433     0.20300
H2484       H  0.51328244  0.23774015  0.71556981     0.20300
C2485       C  0.48399862  0.26892240  0.00508625    -0.05600
C2486       C  0.51089243  0.26307200  0.52061714    -0.16700
C2487       C  0.53283384  0.28344640  0.52025864     0.11600
C2488       C  0.52764671  0.31074672  0.50517273    -0.05500
C2489       C  0.50059824  0.31678233  0.99003054    -0.16700
C2490       C  0.47863713  0.29620032  0.99013180     0.11700
S2491       S  0.56744139  0.27281477  0.53724481    -0.31700
S2492       S  0.94417233  0.30605748  0.97175004    -0.31700
H2493       H  0.92814916  0.28576522  0.99260971     0.29700
H2494       H  0.58309412  0.28886473  0.51007950     0.29700
H2495       H  0.51506702  0.24202067  0.53172270     0.20300
H2496       H  0.49656697  0.33773963  0.97853442     0.20300
C2497       C  0.92306027  0.18243879  0.91807634    -0.05600
C2498       C  0.94826748  0.18960078  0.89785418    -0.16700
C2499       C  0.94953431  0.18932267  0.85725830     0.11600
C2500       C  0.92422254  0.18432248  0.83562862    -0.05500
C2501       C  0.90045561  0.17338088  0.85597231    -0.16700
C2502       C  0.90022305  0.17076569  0.89606889     0.11700
S2503       S  0.98414711  0.19189524  0.83434364    -0.31700
S2504       S  0.87184826  0.14876239  0.91574710    -0.31700
H2505       H  0.88898995  0.13546072  0.94339115     0.29700
H2506       H  0.00017618  0.19813607  0.86748115     0.29700
H2507       H  0.96748989  0.19407912  0.91402946     0.20300
H2508       H  0.88238183  0.16468498  0.84041631     0.20300
C2509       C  0.92388648  0.18058412  0.58589752    -0.05600
C2510       C  0.89927403  0.17060759  0.60537214    -0.16700
C2511       C  0.89791080  0.16871788  0.64556826     0.11600
C2512       C  0.92084240  0.17951881  0.66808975    -0.05500
C2513       C  0.94676205  0.18498290  0.64880980    -0.16700
C2514       C  0.94894498  0.18485053  0.60859409     0.11700
S2515       S  0.86824684  0.14835820  0.66485116    -0.31700
S2516       S  0.98491192  0.18921958  0.59019315    -0.31700
H2517       H  0.98104331  0.17668465  0.55428120     0.29700
H2518       H  0.88424069  0.13540432  0.69408378     0.29700
H2519       H  0.88121100  0.16261202  0.58912694     0.20300
H2520       H  0.96596233  0.18879919  0.66544039     0.20300
C2521       C  0.92305213  0.68284652  0.04161111     0.30600
C2522       C  0.92280360  0.68381968  0.46247416     0.30600
C2523       C  0.89336426  0.68631366  0.02268456    -0.05600
C2524       C  0.93936210  0.70776648  0.02248500    -0.06400
C2525       C  0.93481570  0.65659256  0.02141759    -0.06300
C2526       C  0.89326829  0.68670590  0.48206944    -0.05600
C2527       C  0.93961192  0.70822106  0.48225997    -0.06400
C2528       C  0.93531920  0.65744288  0.48159265    -0.06300
C2529       C  0.87004162  0.70270463  0.47108003    -0.31700
N2530       N  0.85582931  0.71135929  0.00261803     0.14800
C2531       C  0.87051653  0.70279089  0.03396216    -0.31700
H2532       H  0.86623249  0.70994406  0.06288872     0.16800
C2533       C  0.95461020  0.73244827  0.47137004    -0.30600
N2534       N  0.96313524  0.74637567  0.50358133     0.13600
C2535       C  0.95342100  0.73187409  0.03475077    -0.30600
C2536       C  0.94986493  0.63389729  0.46938225    -0.30900
N2537       N  0.95738020  0.61840835  0.00070199     0.14100
H2538       H  0.95526631  0.62879682  0.43998773     0.16700
C2539       C  0.94807014  0.63189495  0.03265127    -0.30900
H2540       H  0.95234018  0.62524094  0.06189021     0.16700
H2541       H  0.95690334  0.73831611  0.06418526     0.16700
H2542       H  0.86551638  0.70997740  0.44218946     0.16800
H2543       H  0.95954088  0.73928779  0.44235460     0.16700
C2544       C  0.92032256  0.68248455  0.21222524     0.30600
C2545       C  0.92290458  0.68519824  0.29116236     0.30600
C2546       C  0.93387141  0.65736138  0.23270483    -0.05600
C2547       C  0.93686234  0.70821369  0.22918422    -0.06400
C2548       C  0.89127614  0.68525142  0.23272239    -0.06300
C2549       C  0.93553508  0.65873508  0.27241218    -0.05600
C2550       C  0.93782785  0.70983595  0.26930178    -0.06400
C2551       C  0.89256343  0.68669093  0.27331528    -0.06300
C2552       C  0.95056691  0.63528119  0.28440376    -0.31700
N2553       N  0.95731756  0.61968429  0.25298866     0.14800
C2554       C  0.94707266  0.63290505  0.22130899    -0.31700
H2555       H  0.95024737  0.62595099  0.19202854     0.16800
C2556       C  0.95300458  0.73423220  0.27825431    -0.30600
N2557       N  0.96227442  0.74661271  0.24511403     0.13600
C2558       C  0.95223203  0.73119389  0.21507844    -0.30600
C2559       C  0.86980815  0.70332330  0.28434477    -0.30900
N2560       N  0.85424670  0.71045131  0.25314240     0.14100
H2561       H  0.86637752  0.71185671  0.31278405     0.16700
C2562       C  0.86767937  0.70064603  0.22168309    -0.30900
H2563       H  0.86256347  0.70705382  0.19260481     0.16700
H2564       H  0.95686646  0.73594230  0.18524205     0.16700
H2565       H  0.95670343  0.63025758  0.31361841     0.16800
H2566       H  0.95838148  0.74167309  0.30673025     0.16700
C2567       C  0.87615509  0.92073951  0.45793133     0.30600
C2568       C  0.87620148  0.92108869  0.03686613     0.30600
C2569       C  0.90483128  0.92864272  0.47715554    -0.05600
C2570       C  0.85610386  0.94230336  0.47703040    -0.06400
C2571       C  0.86694076  0.89281612  0.47760540    -0.06300
C2572       C  0.90474813  0.92873393  0.01757900    -0.05600
C2573       C  0.85561376  0.94191420  0.01721241    -0.06400
C2574       C  0.86698843  0.89300407  0.01796806    -0.06300
C2575       C  0.92527652  0.94830572  0.02891894    -0.31700
N2576       N  0.93823452  0.95933497  0.99746669     0.14800
C2577       C  0.92554073  0.94825575  0.46595652    -0.31700
H2578       H  0.92922632  0.95591081  0.43695499     0.16800
C2579       C  0.83542951  0.96107561  0.02867142    -0.30600
N2580       N  0.82489542  0.97401721  0.99699688     0.13600
C2581       C  0.83727516  0.96286546  0.46531671    -0.30600
C2582       C  0.84696110  0.87295550  0.02961300    -0.30900
N2583       N  0.83557364  0.86021284  0.99840667     0.14100
H2584       H  0.83949325  0.86946855  0.05873767     0.16700
C2585       C  0.84676757  0.87267423  0.46660953    -0.30900
H2586       H  0.83953442  0.86857867  0.43760045     0.16700
H2587       H  0.83269090  0.96931563  0.43611640     0.16700
H2588       H  0.92902148  0.95559109  0.05795186     0.16800
H2589       H  0.82873219  0.96548799  0.05777981     0.16700
C2590       C  0.87387526  0.92427968  0.20783746     0.30600
C2591       C  0.87323865  0.92271946  0.28701591     0.30600
C2592       C  0.90196504  0.93310914  0.22803433    -0.05600
C2593       C  0.85144745  0.94276556  0.22742355    -0.06400
C2594       C  0.86671112  0.89515450  0.22652324    -0.06300
C2595       C  0.90152125  0.93255857  0.26835989    -0.05600
C2596       C  0.85228807  0.94316178  0.26750748    -0.06400
C2597       C  0.86752947  0.89424224  0.26687014    -0.06300
C2598       C  0.92275355  0.95106496  0.28047822    -0.31700
N2599       N  0.93645903  0.96190659  0.24936903     0.14800
C2600       C  0.92399299  0.95133541  0.21731720    -0.31700
H2601       H  0.92912860  0.95816446  0.18835829     0.16800
C2602       C  0.83422462  0.96415447  0.27914420    -0.30600
N2603       N  0.82093064  0.97475665  0.24777520     0.13600
C2604       C  0.83057961  0.96131737  0.21611732    -0.30600
C2605       C  0.85170296  0.87088549  0.27856521    -0.30900
N2606       N  0.83952642  0.85877366  0.24741301     0.14100
H2607       H  0.84613503  0.86552743  0.30795061     0.16700
C2608       C  0.84762922  0.87381460  0.21585943    -0.30900
H2609       H  0.83858550  0.87084493  0.18751289     0.16700
H2610       H  0.82364448  0.96565318  0.18705069     0.16700
H2611       H  0.92633519  0.95813463  0.30966723     0.16800
H2612       H  0.83097095  0.97141103  0.30824493     0.16700
Zn2613     Zn  0.98731853  0.53424306  0.03014019     1.49700
Zn2614     Zn  0.52872248  0.56556995  0.46976905     1.49400
Zn2615     Zn  0.55555927  0.52431362  0.03250766     1.49100
Zn2616     Zn  0.51885939  0.99752317  0.46687146     1.49500
O2617       O  0.52248398  0.53061474  0.99990131    -1.83600
O2618       O  0.96807174  0.57215475  0.02040260    -0.74200
O2619       O  0.56833832  0.58286319  0.47828348    -0.74000
O2620       O  0.54397304  0.52699370  0.08707466    -0.73500
O2621       O  0.49787329  0.59437598  0.48012596    -0.74200
O2622       O  0.49695189  0.53351253  0.08601371    -0.73800
O2623       O  0.58602349  0.55411640  0.02284055    -0.74400
O2624       O  0.55033897  0.96912752  0.47392459    -0.73800
O2625       O  0.52649480  0.55663735  0.41407375    -0.74500
O2626       O  0.57327336  0.98559593  0.02500136    -0.73900
O2627       O  0.51973888  0.50979167  0.41303705    -0.74400
O2628       O  0.98174384  0.97675310  0.47475824    -0.74300
O2629       O  0.95986521  0.50106526  0.02048039    -0.74100
C2630       C  0.97515510  0.59386435  0.00033184     0.77700
C2631       C  0.58853594  0.57554041  0.00056814     0.78200
C2632       C  0.52030725  0.53058973  0.10411971     0.77200
C2633       C  0.56959751  0.96667974  0.99941560     0.77500
C2634       C  0.52292337  0.53349217  0.39607286     0.78700
C2635       C  0.96078934  0.98011790  0.99740961     0.77700
Zn2636     Zn  0.51678970  0.99868591  0.28351865     1.49700
Zn2637     Zn  0.98710987  0.53652262  0.21947314     1.49400
Zn2638     Zn  0.52845669  0.56613464  0.28094152     1.49100
Zn2639     Zn  0.55482512  0.52491480  0.21801980     1.49500
O2640       O  0.52171155  0.53175939  0.25035400    -1.83600
O2641       O  0.97940148  0.97874788  0.27437114    -0.74200
O2642       O  0.96825402  0.57431490  0.23077803    -0.75600
O2643       O  0.52748260  0.55674490  0.33657680    -0.73500
O2644       O  0.95922925  0.50350555  0.22745923    -0.74200
O2645       O  0.51784741  0.51037989  0.33752849    -0.73800
O2646       O  0.49748483  0.59490522  0.27296815    -0.74400
O2647       O  0.58502033  0.55516858  0.22587907    -0.73800
O2648       O  0.49705016  0.53600032  0.16358998    -0.74500
O2649       O  0.56742065  0.58377013  0.27036918    -0.73900
O2650       O  0.54346561  0.52639672  0.16331745    -0.74400
O2651       O  0.57226200  0.98619049  0.22718992    -0.74300
O2652       O  0.54743122  0.96954962  0.27685969    -0.74100
C2653       C  0.95925483  0.98240468  0.25049556     0.77700
C2654       C  0.97499458  0.59512460  0.25245031     0.78200
C2655       C  0.52266663  0.53368050  0.35455358     0.77200
C2656       C  0.58738929  0.57673521  0.24761052     0.77500
C2657       C  0.52019492  0.53110786  0.14585780     0.78700
C2658       C  0.56730628  0.96696905  0.25227707     0.77700
C2659       C  0.61114676  0.87321602  0.46156098     0.30600
C2660       C  0.61242187  0.87525811  0.04057652     0.30600
C2661       C  0.60984445  0.90319067  0.47935201    -0.05600
C2662       C  0.58577545  0.85863475  0.48236939    -0.06400
C2663       C  0.63752455  0.86053092  0.48119500    -0.06300
C2664       C  0.61099908  0.90419594  0.01981746    -0.05600
C2665       C  0.58689765  0.85883473  0.02251230    -0.06400
C2666       C  0.63761029  0.86045730  0.02111825    -0.06300
C2667       C  0.59725107  0.92861367  0.03087197    -0.31700
N2668       N  0.58749935  0.94220059  0.49929891     0.14800
C2669       C  0.59392625  0.92640100  0.46818047    -0.31700
H2670       H  0.58538772  0.93010249  0.43971404     0.16800
C2671       C  0.56476050  0.84154523  0.03529330    -0.30600
N2672       N  0.54968259  0.83222322  0.50444629     0.13600
C2673       C  0.56169679  0.84326234  0.47213423    -0.30600
C2674       C  0.66043118  0.84417540  0.03253076    -0.30900
N2675       N  0.67530558  0.83644235  0.50088622     0.14100
H2676       H  0.66587014  0.83828529  0.06169943     0.16700
C2677       C  0.66156631  0.84632890  0.46930428    -0.30900
H2678       H  0.66775689  0.84219535  0.43990442     0.16700
H2679       H  0.55431426  0.83891446  0.44328258     0.16700
H2680       H  0.59161128  0.93415018  0.06004180     0.16800
H2681       H  0.56067243  0.83484945  0.06459931     0.16700
C2682       C  0.61203117  0.87296758  0.29051113     0.30600
C2683       C  0.61273641  0.87497857  0.21131993     0.30600
C2684       C  0.64067955  0.86587495  0.27116402    -0.05600
C2685       C  0.59107243  0.85242887  0.26993300    -0.06400
C2686       C  0.60371389  0.90131526  0.27182353    -0.06300
C2687       C  0.64133110  0.86704074  0.23086784    -0.05600
C2688       C  0.59229584  0.85272559  0.22977387    -0.06400
C2689       C  0.60516349  0.90265544  0.23194443    -0.06300
C2690       C  0.66482442  0.85140215  0.21973831    -0.31700
N2691       N  0.67856262  0.84180578  0.25145528     0.14800
C2692       C  0.66347493  0.84962296  0.28283195    -0.31700
H2693       H  0.66773263  0.84254382  0.31189031     0.16800
C2694       C  0.57227940  0.83324121  0.21688469    -0.30600
N2695       N  0.55773043  0.82264438  0.24758164     0.13600
C2696       C  0.56861280  0.83448695  0.27999229    -0.30600
C2697       C  0.59380231  0.92828004  0.22074610    -0.30900
N2698       N  0.58397730  0.94165976  0.25243201     0.14100
H2699       H  0.59030100  0.93531116  0.19147814     0.16700
C2700       C  0.58915598  0.92504422  0.28356742    -0.30900
H2701       H  0.58190581  0.92939058  0.31246306     0.16700
H2702       H  0.56013106  0.83075333  0.30850667     0.16700
H2703       H  0.67009348  0.84507633  0.19076685     0.16800
H2704       H  0.56770555  0.82795353  0.18726479     0.16700
C2705       C  0.68761509  0.60944796  0.03984698     0.30600
C2706       C  0.68788135  0.61098556  0.46043890     0.30600
C2707       C  0.69480550  0.63863674  0.02101083    -0.05600
C2708       C  0.70839914  0.58965763  0.01960003    -0.06400
C2709       C  0.65882625  0.60266439  0.02002816    -0.06300
C2710       C  0.69469858  0.63930290  0.48073888    -0.05600
C2711       C  0.70827071  0.59022728  0.47970978    -0.06400
C2712       C  0.65885707  0.60317688  0.47973255    -0.06300
C2713       C  0.70105193  0.66677232  0.46971572    -0.31700
N2714       N  0.70629644  0.68243684  0.50149806     0.14800
C2715       C  0.70163277  0.66591432  0.03296036    -0.31700
H2716       H  0.70441451  0.67314977  0.06217424     0.16800
C2717       C  0.72760017  0.57054668  0.46733915    -0.30600
N2718       N  0.73924473  0.55803046  0.49866312     0.13600
C2719       C  0.72789774  0.56962860  0.03078011    -0.30600
C2720       C  0.63129861  0.59613987  0.46826447    -0.30900
N2721       N  0.61519961  0.59085476  0.50002446     0.14100
H2722       H  0.62363613  0.59366845  0.43914516     0.16700
C2723       C  0.63143862  0.59575272  0.03153490    -0.30900
H2724       H  0.62381074  0.59354637  0.06073289     0.16700
H2725       H  0.73321340  0.56366158  0.05995936     0.16700
H2726       H  0.70269036  0.67484866  0.44065444     0.16800
H2727       H  0.73271096  0.56552455  0.43781424     0.16700
C2728       C  0.68527361  0.61207123  0.28980672     0.30600
C2729       C  0.68688452  0.61260410  0.21040123     0.30600
C2730       C  0.69244691  0.64110390  0.27067082    -0.05600
C2731       C  0.70664192  0.59239611  0.27056398    -0.06400
C2732       C  0.65681106  0.60494563  0.26928637    -0.06300
C2733       C  0.69302845  0.64134887  0.23034089    -0.05600
C2734       C  0.70701011  0.59237097  0.23075268    -0.06400
C2735       C  0.65776264  0.60458444  0.22899700    -0.06300
C2736       C  0.69950001  0.66879132  0.21917317    -0.31700
N2737       N  0.70404883  0.68480530  0.25091447     0.14800
C2738       C  0.69893189  0.66847384  0.28245804    -0.31700
H2739       H  0.70140644  0.67579116  0.31168349     0.16800
C2740       C  0.72603584  0.57222335  0.21929192    -0.30600
N2741       N  0.73728525  0.56020177  0.25118322     0.13600
C2742       C  0.72597972  0.57254264  0.28272240    -0.30600
C2743       C  0.63083097  0.59652996  0.21666053    -0.30900
N2744       N  0.61385829  0.59229083  0.24778315     0.14100
H2745       H  0.62391119  0.59326055  0.18734683     0.16700
C2746       C  0.62904086  0.59853283  0.27985833    -0.30900
H2747       H  0.62075576  0.59686815  0.30880572     0.16700
H2748       H  0.73080132  0.56681336  0.31215401     0.16700
H2749       H  0.70189369  0.67654832  0.19004199     0.16800
H2750       H  0.73122248  0.56653670  0.19002439     0.16700
Zn2751     Zn  0.77271298  0.74209592  0.46898040     1.49700
Zn2752     Zn  0.76056587  0.80932145  0.47012615     1.49400
Zn2753     Zn  0.73167229  0.76808234  0.03267932     1.49100
Zn2754     Zn  0.79986212  0.77978349  0.03360945     1.49500
O2755       O  0.76602733  0.77493014  0.00132339    -1.83600
O2756       O  0.77005007  0.75304980  0.41409747    -0.74200
O2757       O  0.72179661  0.82708125  0.47999189    -0.74000
O2758       O  0.71484198  0.72847979  0.02451661    -0.73500
O2759       O  0.76089800  0.79930938  0.41462455    -0.74200
O2760       O  0.74281871  0.71181806  0.47844396    -0.73800
O2761       O  0.70142795  0.79753858  0.02222584    -0.74400
O2762       O  0.78866594  0.78038032  0.08833915    -0.73800
O2763       O  0.79334164  0.83774258  0.47768465    -0.74500
O2764       O  0.74180403  0.77126207  0.08824279    -0.73900
O2765       O  0.81973169  0.81675408  0.02238402    -0.74400
O2766       O  0.82886816  0.74856262  0.02737909    -0.74300
O2767       O  0.81182831  0.72497375  0.47721239    -0.74100
C2768       C  0.76513196  0.77627443  0.39694258     0.77700
C2769       C  0.70060607  0.81961449  0.00097213     0.78200
C2770       C  0.72172394  0.70890118  0.00131184     0.77200
C2771       C  0.76511813  0.77640566  0.10568753     0.77500
C2772       C  0.81519838  0.83733039  0.99952983     0.78700
C2773       C  0.83114809  0.72909418  0.00241128     0.77700
Zn2774     Zn  0.77199703  0.74284961  0.21934413     1.49700
Zn2775     Zn  0.80025579  0.77998739  0.28381255     1.49400
Zn2776     Zn  0.76245103  0.81049517  0.21996334     1.49100
Zn2777     Zn  0.73147575  0.77019316  0.28223011     1.49500
O2778       O  0.76633143  0.77603589  0.25136079    -1.83600
O2779       O  0.81061086  0.72483730  0.22748053    -0.74200
O2780       O  0.82199737  0.81613185  0.27265220    -0.74000
O2781       O  0.76217536  0.80011543  0.16440770    -0.73500
O2782       O  0.82808915  0.74813459  0.27760288    -0.74200
O2783       O  0.76926984  0.75346773  0.16455143    -0.73800
O2784       O  0.79672163  0.83726235  0.22695657    -0.74400
O2785       O  0.70259140  0.80127609  0.27227889    -0.73800
O2786       O  0.78886621  0.78005891  0.33847533    -0.74500
O2787       O  0.72454439  0.83013200  0.23053008    -0.73900
O2788       O  0.74172814  0.77242368  0.33785170    -0.74400
O2789       O  0.71314561  0.73099890  0.27357319    -0.74300
O2790       O  0.74152834  0.71329421  0.22876658    -0.74100
C2791       C  0.82994616  0.72859811  0.25273385     0.77700
C2792       C  0.81849540  0.83640981  0.24894233     0.78200
C2793       C  0.76527780  0.77672443  0.14706590     0.77200
C2794       C  0.70296789  0.82362290  0.25144005     0.77500
C2795       C  0.76514584  0.77647468  0.35556102     0.78700
C2796       C  0.71996269  0.71102837  0.25089009     0.77700
C2797       C  0.68964624  0.61018556  0.41613658    -0.05600
C2798       C  0.67324243  0.58966887  0.39650940    -0.16700
C2799       C  0.67255024  0.58822182  0.35625488     0.11600
C2800       C  0.68655711  0.60979976  0.33403578    -0.05500
C2801       C  0.70757825  0.62583076  0.35346929    -0.16700
C2802       C  0.71042449  0.62514070  0.39360228     0.11700
S2803       S  0.65677723  0.55595160  0.33728070    -0.31700
S2804       S  0.74351898  0.64020552  0.41170705    -0.31700
H2805       H  0.74509386  0.62444976  0.44575591     0.29700
H2806       H  0.67205766  0.55495143  0.30281109     0.29700
H2807       H  0.66238670  0.57310292  0.41268601     0.20300
H2808       H  0.72359903  0.63737018  0.33707058     0.20300
C2809       C  0.68909221  0.60731201  0.08413692    -0.05600
C2810       C  0.70955012  0.62396971  0.10365028    -0.16700
C2811       C  0.71095182  0.62493694  0.14391627     0.11600
C2812       C  0.68953571  0.61069927  0.16619080    -0.05500
C2813       C  0.67410614  0.58917167  0.14696484    -0.16700
C2814       C  0.67460158  0.58637053  0.10681212     0.11700
S2815       S  0.74308414  0.64129388  0.16299019    -0.31700
S2816       S  0.65983023  0.55332302  0.08881343    -0.31700
H2817       H  0.67444604  0.55265020  0.05382721     0.29700
H2818       H  0.74429001  0.62614191  0.19757369     0.29700
H2819       H  0.72604761  0.63493208  0.08742357     0.20300
H2820       H  0.66317378  0.57287599  0.16350682     0.20300
C2821       C  0.61243501  0.87141359  0.41726172    -0.05600
C2822       C  0.62315608  0.89509451  0.39671699    -0.16700
C2823       C  0.62509909  0.89555040  0.35656778     0.11600
C2824       C  0.61357211  0.87265699  0.33481637    -0.05500
C2825       C  0.60675097  0.84762479  0.35521344    -0.16700
C2826       C  0.60703481  0.84625743  0.39558430     0.11700
S2827       S  0.64462586  0.92533379  0.33618025    -0.31700
S2828       S  0.60215136  0.81092987  0.41542307    -0.31700
H2829       H  0.61434853  0.81519812  0.45155064     0.29700
H2830       H  0.65987390  0.90947470  0.30933821     0.29700
H2831       H  0.63174069  0.91318420  0.41207615     0.20300
H2832       H  0.60283336  0.82820440  0.33963779     0.20300
C2833       C  0.61316566  0.87787726  0.08479087    -0.05600
C2834       C  0.58719306  0.87839522  0.10502891    -0.16700
C2835       C  0.58585941  0.87899103  0.14526263     0.11600
C2836       C  0.61165568  0.87772430  0.16710670    -0.05500
C2837       C  0.63728809  0.88259445  0.14672408    -0.16700
C2838       C  0.63822627  0.88396573  0.10644275     0.11700
S2839       S  0.55004222  0.88306728  0.16421907    -0.31700
S2840       S  0.67152598  0.89663416  0.08597507    -0.31700
H2841       H  0.65943997  0.91168142  0.05536911     0.29700
H2842       H  0.55582417  0.88904157  0.20261851     0.29700
H2843       H  0.56737108  0.87975362  0.08930427     0.20300
H2844       H  0.65675710  0.88729431  0.16220123     0.20300
C2845       C  0.80016525  0.49670208  0.24825074    -0.05600
C2846       C  0.77307850  0.49123683  0.23267999    -0.16700
C2847       C  0.75173796  0.51157536  0.23438973     0.11600
C2848       C  0.75780721  0.53809052  0.25133614    -0.05500
C2849       C  0.78492927  0.54364736  0.26665737    -0.16700
C2850       C  0.80632595  0.52327081  0.26492856     0.11700
S2851       S  0.71699716  0.50233872  0.21554229    -0.31700
S2852       S  0.84191571  0.53185789  0.28156127    -0.31700
H2853       H  0.83589555  0.05915195  0.29498012     0.29700
H2854       H  0.70147360  0.51933837  0.24099559     0.29700
H2855       H  0.76836844  0.97071526  0.21997702     0.20300
H2856       H  0.78940392  0.56430278  0.27886898     0.20300
C2857       C  0.76041175  0.53642298  0.49775732    -0.05600
C2858       C  0.78737679  0.54293341  0.48229995    -0.16700
C2859       C  0.80908552  0.52286220  0.48234052     0.11600
C2860       C  0.80352853  0.49548114  0.99733441    -0.05500
C2861       C  0.77653838  0.48896342  0.01275126    -0.16700
C2862       C  0.75483345  0.50903828  0.01272086     0.11700
S2863       S  0.84370968  0.53369897  0.46447841    -0.31700
S2864       S  0.72024180  0.49827027  0.03079762    -0.31700
H2865       H  0.70439377  0.51638042  0.00699663     0.29700
H2866       H  0.85952287  0.01606871  0.48896215     0.29700
H2867       H  0.79166476  0.56405581  0.47111233     0.20300
H2868       H  0.77228904  0.96788135  0.02402288     0.20300
C2869       C  0.87576734  0.91893408  0.41362591    -0.05600
C2870       C  0.84952611  0.92162878  0.39450741    -0.16700
C2871       C  0.84724184  0.92114540  0.35432258     0.11600
C2872       C  0.87255202  0.92044809  0.33135911    -0.05500
C2873       C  0.89799477  0.91337279  0.35058090    -0.16700
C2874       C  0.89952418  0.91111580  0.39076198     0.11700
S2875       S  0.81083048  0.91898854  0.33687270    -0.31700
S2876       S  0.93108263  0.89452934  0.40965265    -0.31700
H2877       H  0.91656463  0.87910665  0.43849906     0.29700
H2878       H  0.81576566  0.90858164  0.30005982     0.29700
H2879       H  0.83008644  0.92270286  0.41122947     0.20300
H2880       H  0.91671530  0.90796709  0.33405556     0.20300
C2881       C  0.87784341  0.92161175  0.08117749    -0.05600
C2882       C  0.87543976  0.94775312  0.10006676    -0.16700
C2883       C  0.87532632  0.95009716  0.14025856     0.11600
C2884       C  0.87613760  0.92499403  0.16346401    -0.05500
C2885       C  0.88309812  0.89962911  0.14440218    -0.16700
C2886       C  0.88527749  0.89794995  0.10428235     0.11700
S2887       S  0.87582589  0.98640115  0.15723061    -0.31700
S2888       S  0.90086968  0.86600124  0.08571271    -0.31700
H2889       H  0.91675206  0.87975196  0.05665786     0.29700
H2890       H  0.88248955  0.98235367  0.19585309     0.29700
H2891       H  0.87481287  0.96707110  0.08319524     0.20300
H2892       H  0.88853055  0.88097774  0.16092813     0.20300
C2893       C  0.53346837  0.80364526  0.24583839    -0.05600
C2894       C  0.50703020  0.81235186  0.26043329    -0.16700
C2895       C  0.48280146  0.79452037  0.25874186     0.11600
C2896       C  0.48512089  0.76721698  0.24275353    -0.05500
C2897       C  0.51135701  0.75884629  0.22735948    -0.16700
C2898       C  0.53551371  0.77658280  0.22903835     0.11700
S2899       S  0.94945546  0.80783979  0.27657311    -0.31700
S2900       S  0.56869200  0.76289630  0.21124978    -0.31700
H2901       H  0.58627119  0.77735912  0.23765094     0.29700
H2902       H  0.93171203  0.79004556  0.25438181     0.29700
H2903       H  0.50525919  0.83331766  0.27271423     0.20300
H2904       H  0.51327567  0.73774697  0.21553712     0.20300
C2905       C  0.48396520  0.76891687  0.50509056    -0.05600
C2906       C  0.51085646  0.76307058  0.02062109    -0.16700
C2907       C  0.53279946  0.78344296  0.02026271     0.11600
C2908       C  0.52761643  0.81074229  0.00517097    -0.05500
C2909       C  0.50057328  0.81677152  0.49001986    -0.16700
C2910       C  0.47861021  0.79619147  0.49012020     0.11700
S2911       S  0.56740531  0.77280812  0.03725074    -0.31700
S2912       S  0.94418385  0.80609038  0.47174527    -0.31700
H2913       H  0.92816118  0.78579101  0.49259266     0.29700
H2914       H  0.58305925  0.78885026  0.01007818     0.29700
H2915       H  0.51502830  0.74202021  0.03173199     0.20300
H2916       H  0.49654685  0.83772640  0.47851226     0.20300
C2917       C  0.92307964  0.68245143  0.41807255    -0.05600
C2918       C  0.94828548  0.68961262  0.39784645    -0.16700
C2919       C  0.94955019  0.68932715  0.35725037     0.11600
C2920       C  0.92423676  0.68432481  0.33562487    -0.05500
C2921       C  0.90047189  0.67338420  0.35597279    -0.16700
C2922       C  0.90024285  0.67077241  0.39606962     0.11700
S2923       S  0.98416165  0.69189230  0.33433019    -0.31700
S2924       S  0.87187472  0.64876370  0.41575387    -0.31700
H2925       H  0.88902181  0.63546721  0.44339633     0.29700
H2926       H  0.00019503  0.69812739  0.36746581     0.29700
H2927       H  0.96750822  0.69409566  0.41401889     0.20300
H2928       H  0.88239790  0.66468540  0.34042019     0.20300
C2929       C  0.92390588  0.68060443  0.08589307    -0.05600
C2930       C  0.89929681  0.67061463  0.10536469    -0.16700
C2931       C  0.89793378  0.66871779  0.14556086     0.11600
C2932       C  0.92086021  0.67952467  0.16808578    -0.05500
C2933       C  0.94677877  0.68499951  0.14880807    -0.16700
C2934       C  0.94896245  0.68487509  0.10859205     0.11700
S2935       S  0.86827995  0.64834171  0.16484041    -0.31700
S2936       S  0.98492804  0.68925868  0.09019286    -0.31700
H2937       H  0.98106492  0.67671552  0.05428494     0.29700
H2938       H  0.88427994  0.63539301  0.19407111     0.29700
H2939       H  0.88123720  0.66261437  0.08911673     0.20300
H2940       H  0.96597768  0.68881871  0.16544037     0.20300
C2941       C  0.92305111  0.68284419  0.54161110     0.30600
C2942       C  0.92280458  0.68382213  0.96247428     0.30600
C2943       C  0.89336326  0.68631123  0.52268427    -0.05600
C2944       C  0.93936154  0.70776416  0.52248485    -0.06400
C2945       C  0.93481449  0.65659003  0.52141769    -0.06300
C2946       C  0.89326909  0.68670837  0.98206962    -0.05600
C2947       C  0.93961308  0.70822336  0.98226011    -0.06400
C2948       C  0.93532015  0.65744557  0.98159265    -0.06300
C2949       C  0.87004276  0.70270793  0.97108081    -0.31700
N2950       N  0.85582735  0.71135516  0.50261682     0.14800
C2951       C  0.87051475  0.70278762  0.53396132    -0.31700
H2952       H  0.86623021  0.70994091  0.56288776     0.16800
C2953       C  0.95461247  0.73245006  0.97137090    -0.30600
N2954       N  0.96313662  0.74637720  0.00358285     0.13600
C2955       C  0.95342107  0.73187190  0.53474984    -0.30600
C2956       C  0.94986636  0.63390063  0.96938153    -0.30900
N2957       N  0.95737812  0.61840491  0.50070313     0.14100
H2958       H  0.95526756  0.62880049  0.93998686     0.16700
C2959       C  0.94806807  0.63189203  0.53265194    -0.30900
H2960       H  0.95233768  0.62523808  0.56189113     0.16700
H2961       H  0.95690449  0.73831367  0.56418430     0.16700
H2962       H  0.86551725  0.70998048  0.94219025     0.16800
H2963       H  0.95954449  0.73928934  0.94235584     0.16700
C2964       C  0.92032310  0.68247806  0.71222555     0.30600
C2965       C  0.92290798  0.68519196  0.79116262     0.30600
C2966       C  0.93387146  0.65735439  0.73270439    -0.05600
C2967       C  0.93686494  0.70820611  0.72918339    -0.06400
C2968       C  0.89127750  0.68524654  0.73272447    -0.06300
C2969       C  0.93553666  0.65872811  0.77241176    -0.05600
C2970       C  0.93783222  0.70982854  0.76930092    -0.06400
C2971       C  0.89256629  0.68668646  0.77331719    -0.06300
C2972       C  0.95057026  0.63527500  0.78440188    -0.31700
N2973       N  0.95732011  0.61967852  0.75298607     0.14800
C2974       C  0.94707332  0.63289880  0.72130730    -0.31700
H2975       H  0.95024739  0.62594512  0.69202647     0.16800
C2976       C  0.95301155  0.73422356  0.77825178    -0.30600
N2977       N  0.96228058  0.74660294  0.74511036     0.13600
C2978       C  0.95223576  0.73118486  0.71507586    -0.30600
C2979       C  0.86981208  0.70332015  0.78434782    -0.30900
N2980       N  0.85424980  0.71044852  0.75314630     0.14100
H2981       H  0.86638276  0.71185396  0.81278723     0.16700
C2982       C  0.86768097  0.70064205  0.72168643    -0.30900
H2983       H  0.86256431  0.70704962  0.69260843     0.16700
H2984       H  0.95686863  0.73593323  0.68523907     0.16700
H2985       H  0.95670867  0.63025173  0.81361588     0.16800
H2986       H  0.95839009  0.74166471  0.80672708     0.16700
C2987       C  0.87615046  0.92074408  0.95793077     0.30600
C2988       C  0.87620580  0.92108511  0.53686731     0.30600
C2989       C  0.90482642  0.92864706  0.97715479    -0.05600
C2990       C  0.85609924  0.94230801  0.97702985    -0.06400
C2991       C  0.86693600  0.89282065  0.97760399    -0.06300
C2992       C  0.90475255  0.92873042  0.51758002    -0.05600
C2993       C  0.85561814  0.94190980  0.51721280    -0.06400
C2994       C  0.86699306  0.89299988  0.51796970    -0.06300
C2995       C  0.92528052  0.94830278  0.52891983    -0.31700
N2996       N  0.93823887  0.95933170  0.49746760     0.14800
C2997       C  0.92553561  0.94826011  0.96595563    -0.31700
H2998       H  0.92922078  0.95591563  0.93695434     0.16800
C2999       C  0.83543237  0.96106954  0.52867160    -0.30600
N3000       N  0.82489771  0.97401048  0.49699707     0.13600
C3001       C  0.83727188  0.96287143  0.96531634    -0.30600
C3002       C  0.84696577  0.87295095  0.52961459    -0.30900
N3003       N  0.83557829  0.86020805  0.49840816     0.14100
H3004       H  0.83949774  0.86946422  0.55873917     0.16700
C3005       C  0.84676259  0.87267912  0.96660795    -0.30900
H3006       H  0.83952934  0.86858366  0.93759895     0.16700
H3007       H  0.83268825  0.96932233  0.93611610     0.16700
H3008       H  0.92902481  0.95558882  0.55795249     0.16800
H3009       H  0.82873405  0.96548094  0.55777984     0.16700
C3010       C  0.87387643  0.92428285  0.70783932     0.30600
C3011       C  0.87324247  0.92272030  0.78701749     0.30600
C3012       C  0.90196884  0.93310691  0.72803473    -0.05600
C3013       C  0.85145294  0.94277247  0.72742838    -0.06400
C3014       C  0.86670802  0.89515841  0.72652439    -0.06300
C3015       C  0.90152655  0.93255491  0.76836085    -0.05600
C3016       C  0.85229577  0.94316708  0.76751210    -0.06400
C3017       C  0.86752739  0.89424498  0.76687061    -0.06300
C3018       C  0.92275877  0.95106184  0.78047852    -0.31700
N3019       N  0.93646287  0.96190511  0.74936927     0.14800
C3020       C  0.92399570  0.95133477  0.71731773    -0.31700
H3021       H  0.92912940  0.95816571  0.68835908     0.16800
C3022       C  0.83423604  0.96416105  0.77915348    -0.30600
N3023       N  0.82094144  0.97476627  0.74778736     0.13600
C3024       C  0.83058622  0.96132706  0.71612689    -0.30600
C3025       C  0.85170196  0.87088764  0.77856572    -0.30900
N3026       N  0.83952498  0.85877632  0.74741338     0.14100
H3027       H  0.84613554  0.86552833  0.80795127     0.16700
C3028       C  0.84762660  0.87381834  0.71585997    -0.30900
H3029       H  0.83858331  0.87084849  0.68751330     0.16700
H3030       H  0.82364795  0.96566377  0.68706186     0.16700
H3031       H  0.92634051  0.95813141  0.80966759     0.16800
H3032       H  0.83098413  0.97141531  0.80825565     0.16700
Zn3033     Zn  0.98731495  0.53423789  0.53014001     1.49700
Zn3034     Zn  0.52872287  0.56557164  0.96976158     1.49400
Zn3035     Zn  0.55555288  0.52430337  0.53250865     1.49100
Zn3036     Zn  0.51885113  0.99752380  0.96686954     1.49500
O3037       O  0.52247884  0.53061134  0.49990303    -1.83600
O3038       O  0.96806819  0.57215025  0.52040204    -0.74200
O3039       O  0.56833629  0.58287116  0.97827091    -0.74000
O3040       O  0.54396584  0.52698178  0.58707366    -0.73500
O3041       O  0.49787278  0.59437524  0.98011883    -0.74200
O3042       O  0.49694589  0.53350916  0.58601329    -0.73800
O3043       O  0.58602366  0.55410134  0.52284612    -0.74400
O3044       O  0.55032688  0.96912317  0.97391921    -0.73800
O3045       O  0.52649309  0.55663562  0.91406809    -0.74500
O3046       O  0.57328565  0.98560423  0.52500458    -0.73900
O3047       O  0.51974466  0.50978898  0.91303606    -0.74400
O3048       O  0.98173960  0.97675520  0.97475644    -0.74300
O3049       O  0.95986191  0.50105919  0.52048103    -0.74100
C3050       C  0.97515324  0.59386091  0.50033410     0.77700
C3051       C  0.58853818  0.57552726  0.50057733     0.78200
C3052       C  0.52030082  0.53058145  0.60411873     0.77200
C3053       C  0.56961114  0.96668713  0.49941949     0.77500
C3054       C  0.52292473  0.53348910  0.89606950     0.78700
C3055       C  0.96079312  0.98011552  0.49741073     0.77700
Zn3056     Zn  0.51678498  0.99868620  0.78352283     1.49700
Zn3057     Zn  0.98710992  0.53651668  0.71947159     1.49400
Zn3058     Zn  0.52845739  0.56613086  0.78093843     1.49100
Zn3059     Zn  0.55482478  0.52491387  0.71801501     1.49500
O3060       O  0.52171139  0.53175661  0.75035050    -1.83600
O3061       O  0.97940273  0.97875084  0.77437500    -0.74200
O3062       O  0.96825536  0.57430925  0.73077476    -0.75600
O3063       O  0.52748208  0.55674045  0.83657288    -0.73500
O3064       O  0.95922954  0.50350077  0.72745938    -0.74200
O3065       O  0.51784788  0.51037531  0.83752577    -0.73800
O3066       O  0.49748671  0.59490192  0.77296412    -0.74400
O3067       O  0.58501853  0.55517127  0.72586777    -0.73800
O3068       O  0.49704564  0.53599369  0.66358920    -0.74500
O3069       O  0.56742166  0.58376632  0.77036742    -0.73900
O3070       O  0.54346120  0.52639026  0.66331450    -0.74400
O3071       O  0.57225337  0.98618371  0.72719129    -0.74300
O3072       O  0.54742511  0.96954659  0.77686544    -0.74100
C3073       C  0.95925779  0.98240452  0.75049572     0.77700
C3074       C  0.97499678  0.59511881  0.75244667     0.78200
C3075       C  0.52266685  0.53367620  0.85455026     0.77200
C3076       C  0.58738864  0.57673540  0.74760370     0.77500
C3077       C  0.52018968  0.53110016  0.64585623     0.78700
C3078       C  0.56729773  0.96696312  0.75227962     0.77700
C3079       C  0.61114177  0.87320962  0.96156129     0.30600
C3080       C  0.61242504  0.87526143  0.54057615     0.30600
C3081       C  0.60983341  0.90318431  0.97935062    -0.05600
C3082       C  0.58577432  0.85862418  0.98237193    -0.06400
C3083       C  0.63752253  0.86053035  0.98119479    -0.06300
C3084       C  0.61100913  0.90420066  0.51981916    -0.05600
C3085       C  0.58689789  0.85884412  0.52250959    -0.06400
C3086       C  0.63761093  0.86045590  0.52111837    -0.06300
C3087       C  0.59726448  0.92862021  0.53087462    -0.31700
N3088       N  0.58748336  0.94219155  0.99929574     0.14800
C3089       C  0.59391139  0.92639175  0.96817801    -0.31700
H3090       H  0.58537287  0.93009191  0.93971115     0.16800
C3091       C  0.56475954  0.84155558  0.53528909    -0.30600
N3092       N  0.54968337  0.83221230  0.00445090     0.13600
C3093       C  0.56169636  0.84325092  0.97213810    -0.30600
C3094       C  0.66042994  0.84417123  0.53253084    -0.30900
N3095       N  0.67530605  0.83644593  0.00088578     0.14100
H3096       H  0.66586781  0.83827983  0.56169947     0.16700
C3097       C  0.66156488  0.84632964  0.96930379    -0.30900
H3098       H  0.66775396  0.84219388  0.93990398     0.16700
H3099       H  0.55431236  0.83890360  0.94328696     0.16700
H3100       H  0.59162334  0.93415554  0.56004452     0.16800
H3101       H  0.56067174  0.83485831  0.56459462     0.16700
C3102       C  0.61202560  0.87296218  0.79051171     0.30600
C3103       C  0.61273117  0.87497334  0.71132040     0.30600
C3104       C  0.64067374  0.86586822  0.77116458    -0.05600
C3105       C  0.59106591  0.85242454  0.76993368    -0.06400
C3106       C  0.60370876  0.90131009  0.77182434    -0.06300
C3107       C  0.64132543  0.86703391  0.73086896    -0.05600
C3108       C  0.59228895  0.85272130  0.72977438    -0.06400
C3109       C  0.60515867  0.90265061  0.73194518    -0.06300
C3110       C  0.66482178  0.85139917  0.71973981    -0.31700
N3111       N  0.67856168  0.84180529  0.75145697     0.14800
C3112       C  0.66347224  0.84962056  0.78283338    -0.31700
H3113       H  0.66773113  0.84254299  0.81189207     0.16800
C3114       C  0.57226989  0.83323895  0.71688611    -0.30600
N3115       N  0.55772035  0.82264346  0.74758374     0.13600
C3116       C  0.56860479  0.83448479  0.77999394    -0.30600
C3117       C  0.59379434  0.92827414  0.72074732    -0.30900
N3118       N  0.58396717  0.94165247  0.75243329     0.14100
H3119       H  0.59029287  0.93530540  0.69147953     0.16700
C3120       C  0.58914694  0.92503684  0.78356818    -0.30900
H3121       H  0.58189567  0.92938187  0.81246366     0.16700
H3122       H  0.56012400  0.83075148  0.80850884     0.16700
H3123       H  0.67009218  0.84507394  0.69076855     0.16800
H3124       H  0.56769525  0.82795137  0.68726655     0.16700
C3125       C  0.68762066  0.60943978  0.53984663     0.30600
C3126       C  0.68788164  0.61099225  0.96043837     0.30600
C3127       C  0.69480639  0.63862992  0.52101049    -0.05600
C3128       C  0.70840547  0.58965166  0.51959647    -0.06400
C3129       C  0.65883096  0.60265258  0.52003162    -0.06300
C3130       C  0.69470050  0.63930920  0.98073881    -0.05600
C3131       C  0.70826784  0.59023228  0.97971317    -0.06400
C3132       C  0.65885529  0.60318750  0.97972904    -0.06300
C3133       C  0.70105529  0.66677825  0.96971623    -0.31700
N3134       N  0.70629824  0.68244261  0.00149909     0.14800
C3135       C  0.70163331  0.66590797  0.53295950    -0.31700
H3136       H  0.70441689  0.67314339  0.56217299     0.16800
C3137       C  0.72759958  0.57055194  0.96734751    -0.30600
N3138       N  0.73924174  0.55803714  0.99867456     0.13600
C3139       C  0.72790427  0.56962115  0.53077165    -0.30600
C3140       C  0.63129686  0.59615332  0.96825782    -0.30900
N3141       N  0.61519510  0.59087149  0.00001620     0.14100
H3142       H  0.62363646  0.59368037  0.93913780     0.16700
C3143       C  0.63144496  0.59573596  0.53154158    -0.30900
H3144       H  0.62381917  0.59352804  0.56074028     0.16700
H3145       H  0.73322159  0.56365180  0.55994958     0.16700
H3146       H  0.70269491  0.67485482  0.94065517     0.16800
H3147       H  0.73271430  0.56552982  0.93782391     0.16700
C3148       C  0.68527151  0.61207583  0.78980374     0.30600
C3149       C  0.68688348  0.61260945  0.71039800     0.30600
C3150       C  0.69244454  0.64110864  0.77066815    -0.05600
C3151       C  0.70664020  0.59240098  0.77056070    -0.06400
C3152       C  0.65680905  0.60494992  0.76928217    -0.06300
C3153       C  0.69302673  0.64135413  0.73033817    -0.05600
C3154       C  0.70700872  0.59237661  0.73074951    -0.06400
C3155       C  0.65776139  0.60458897  0.72899265    -0.06300
C3156       C  0.69949867  0.66879672  0.71917147    -0.31700
N3157       N  0.70404734  0.68481006  0.75091342     0.14800
C3158       C  0.69892951  0.66847826  0.78245629    -0.31700
H3159       H  0.70140386  0.67579513  0.81168201     0.16800
C3160       C  0.72603437  0.57222953  0.71928754    -0.30600
N3161       N  0.73728358  0.56020694  0.75117803     0.13600
C3162       C  0.72597819  0.57254722  0.78271795    -0.30600
C3163       C  0.63083062  0.59653225  0.71665481    -0.30900
N3164       N  0.61385732  0.59229204  0.74777671     0.14100
H3165       H  0.62391231  0.59326163  0.68734065     0.16700
C3166       C  0.62903879  0.59853550  0.77985249    -0.30900
H3167       H  0.62075292  0.59687070  0.80879955     0.16700
H3168       H  0.73080048  0.56681776  0.81214926     0.16700
H3169       H  0.70189293  0.67655422  0.69004055     0.16800
H3170       H  0.73122155  0.56654433  0.69001969     0.16700
Zn3171     Zn  0.77271517  0.74209974  0.96898336     1.49700
Zn3172     Zn  0.76056480  0.80932350  0.97012568     1.49400
Zn3173     Zn  0.73167196  0.76807759  0.53267854     1.49100
Zn3174     Zn  0.79986196  0.77977939  0.53360773     1.49500
O3175       O  0.76602674  0.77492637  0.50132171    -1.83600
O3176       O  0.77005483  0.75305165  0.91410020    -0.74200
O3177       O  0.72179622  0.82708381  0.97999003    -0.74000
O3178       O  0.71484079  0.72847452  0.52451494    -0.73500
O3179       O  0.76089735  0.79931000  0.91462513    -0.74200
O3180       O  0.74282081  0.71182327  0.97844654    -0.73800
O3181       O  0.70142763  0.79753459  0.52222558    -0.74400
O3182       O  0.78866690  0.78037651  0.58833763    -0.73800
O3183       O  0.79333892  0.83774511  0.97768261    -0.74500
O3184       O  0.74180529  0.77125682  0.58824285    -0.73900
O3185       O  0.81973454  0.81674895  0.52238341    -0.74400
O3186       O  0.82886574  0.74855760  0.52737784    -0.74300
O3187       O  0.81182962  0.72497725  0.97721585    -0.74100
C3188       C  0.76513469  0.77627532  0.89694427     0.77700
C3189       C  0.70060596  0.81961113  0.50097287     0.78200
C3190       C  0.72172216  0.70889577  0.50130991     0.77200
C3191       C  0.76511964  0.77640117  0.60568698     0.77500
C3192       C  0.81520179  0.83732632  0.49953082     0.78700
C3193       C  0.83114608  0.72908986  0.50240928     0.77700
Zn3194     Zn  0.77200033  0.74284912  0.71934679     1.49700
Zn3195     Zn  0.80025952  0.77998739  0.78381405     1.49400
Zn3196     Zn  0.76245159  0.81049436  0.71996244     1.49100
Zn3197     Zn  0.73147887  0.77019539  0.78223271     1.49500
O3198       O  0.76633446  0.77603628  0.75136234    -1.83600
O3199       O  0.81061287  0.72483415  0.72748706    -0.74200
O3200       O  0.82199823  0.81613380  0.77265344    -0.74000
O3201       O  0.76217577  0.80011213  0.66440669    -0.73500
O3202       O  0.82809473  0.74813505  0.77760406    -0.74200
O3203       O  0.76927498  0.75346524  0.66455252    -0.73800
O3204       O  0.79672209  0.83726192  0.72695565    -0.74400
O3205       O  0.70259423  0.80127839  0.77228328    -0.73800
O3206       O  0.78886996  0.78005725  0.83847735    -0.74500
O3207       O  0.72454370  0.83013191  0.73052864    -0.73900
O3208       O  0.74173131  0.77242585  0.83785356    -0.74400
O3209       O  0.71314742  0.73100212  0.77357517    -0.74300
O3210       O  0.74152902  0.71329669  0.72876768    -0.74100
C3211       C  0.82994972  0.72859624  0.75273794     0.77700
C3212       C  0.81849541  0.83641108  0.74894251     0.78200
C3213       C  0.76528028  0.77672099  0.64706575     0.77200
C3214       C  0.70296849  0.82362382  0.75144187     0.77500
C3215       C  0.76514923  0.77647483  0.85556290     0.78700
C3216       C  0.71996307  0.71103189  0.75089076     0.77700
C3217       C  0.68964724  0.61019115  0.91613535    -0.05600
C3218       C  0.67324281  0.58967459  0.89650860    -0.16700
C3219       C  0.67254904  0.58822770  0.85625385     0.11600
C3220       C  0.68655574  0.60980500  0.83403351    -0.05500
C3221       C  0.70757750  0.62583599  0.85346645    -0.16700
C3222       C  0.71042451  0.62514648  0.89359973     0.11700
S3223       S  0.65677414  0.55595828  0.83728042    -0.31700
S3224       S  0.74351940  0.64021070  0.91170354    -0.31700
H3225       H  0.74509429  0.62445262  0.94575061     0.29700
H3226       H  0.67205702  0.55495606  0.80281284     0.29700
H3227       H  0.66238708  0.57310901  0.91268583     0.20300
H3228       H  0.72359820  0.63737495  0.83706705     0.20300
C3229       C  0.68910021  0.60730487  0.58413596    -0.05600
C3230       C  0.70955537  0.62396668  0.60364779    -0.16700
C3231       C  0.71095346  0.62493959  0.64391360     0.11600
C3232       C  0.68953653  0.61070279  0.66618812    -0.05500
C3233       C  0.67411152  0.58917052  0.64696493    -0.16700
C3234       C  0.67461107  0.58636402  0.60681323     0.11700
S3235       S  0.74308284  0.64130193  0.66298795    -0.31700
S3236       S  0.65984799  0.55331136  0.58881961    -0.31700
H3237       H  0.67445901  0.55264146  0.55382972     0.29700
H3238       H  0.74428948  0.62615055  0.69757199     0.29700
H3239       H  0.72605304  0.63492842  0.58742049     0.20300
H3240       H  0.66317970  0.57287562  0.66350896     0.20300
C3241       C  0.61242940  0.87140694  0.91726204    -0.05600
C3242       C  0.62314867  0.89508876  0.89671792    -0.16700
C3243       C  0.62509147  0.89554567  0.85656889     0.11600
C3244       C  0.61356655  0.87265146  0.83481680    -0.05500
C3245       C  0.60674719  0.84761845  0.85521322    -0.16700
C3246       C  0.60703115  0.84625064  0.89558414     0.11700
S3247       S  0.64461417  0.92533286  0.83618399    -0.31700
S3248       S  0.60215040  0.81092283  0.91542277    -0.31700
H3249       H  0.61435254  0.81519202  0.95154725     0.29700
H3250       H  0.65985060  0.90948215  0.80932092     0.29700
H3251       H  0.63173165  0.91317894  0.91207765     0.20300
H3252       H  0.60283019  0.82819818  0.83963686     0.20300
C3253       C  0.61316722  0.87787811  0.58479080    -0.05600
C3254       C  0.58719374  0.87839807  0.60502662    -0.16700
C3255       C  0.58585775  0.87898939  0.64526027     0.11600
C3256       C  0.61165265  0.87771982  0.66710687    -0.05500
C3257       C  0.63728649  0.88258922  0.64672682    -0.16700
C3258       C  0.63822753  0.88396131  0.60644568     0.11700
S3259       S  0.55003933  0.88306357  0.66421311    -0.31700
S3260       S  0.67153123  0.89662326  0.58598248    -0.31700
H3261       H  0.65945094  0.91167188  0.55537363     0.29700
H3262       H  0.55581911  0.88903680  0.70261342     0.29700
H3263       H  0.56737277  0.87976090  0.58930040     0.20300
H3264       H  0.65675490  0.88728806  0.66220586     0.20300
C3265       C  0.80017247  0.49671578  0.74824107    -0.05600
C3266       C  0.77308909  0.49125054  0.73265929    -0.16700
C3267       C  0.75174537  0.51158573  0.73437056     0.11600
C3268       C  0.75780817  0.53809807  0.75132898    -0.05500
C3269       C  0.78492692  0.54365527  0.76666012    -0.16700
C3270       C  0.80632650  0.52328183  0.76493109     0.11700
S3271       S  0.71700837  0.50234767  0.71551165    -0.31700
S3272       S  0.84191164  0.53187061  0.78157978    -0.31700
H3273       H  0.83590261  0.05915279  0.79502468     0.29700
H3274       H  0.70147907  0.51933885  0.74096915     0.29700
H3275       H  0.76837981  0.97072685  0.71999046     0.20300
H3276       H  0.78939693  0.56430895  0.77887999     0.20300
C3277       C  0.76041054  0.53643102  0.99777469    -0.05600
C3278       C  0.78737530  0.54294121  0.98231606    -0.16700
C3279       C  0.80908460  0.52287053  0.98235838     0.11600
C3280       C  0.80352914  0.49547282  0.49731667    -0.05500
C3281       C  0.77653750  0.48895390  0.51272793    -0.16700
C3282       C  0.75483247  0.50902859  0.51269608     0.11700
S3283       S  0.84370965  0.53370800  0.96450017    -0.31700
S3284       S  0.72023791  0.49825841  0.53076071    -0.31700
H3285       H  0.70439338  0.51637646  0.50696657     0.29700
H3286       H  0.85952617  0.01606999  0.98897665     0.29700
H3287       H  0.79166263  0.56406301  0.97112609     0.20300
H3288       H  0.77229665  0.96787526  0.52404267     0.20300
C3289       C  0.87576462  0.91893804  0.91362607    -0.05600
C3290       C  0.84952443  0.92163358  0.89450565    -0.16700
C3291       C  0.84724205  0.92114808  0.85432092     0.11600
C3292       C  0.87255353  0.92044866  0.83135999    -0.05500
C3293       C  0.89799504  0.91337324  0.85058394    -0.16700
C3294       C  0.89952221  0.91111743  0.89076497     0.11700
S3295       S  0.81083117  0.91899263  0.83686830    -0.31700
S3296       S  0.93107941  0.89453068  0.90965914    -0.31700
H3297       H  0.91655989  0.87910893  0.93850503     0.29700
H3298       H  0.81576712  0.90858802  0.80005443     0.29700
H3299       H  0.83008417  0.92270979  0.91122607     0.20300
H3300       H  0.91671613  0.90796655  0.83406056     0.20300
C3301       C  0.87784656  0.92161042  0.58117906    -0.05600
C3302       C  0.87544143  0.94775256  0.60006655    -0.16700
C3303       C  0.87532646  0.95009823  0.64025832     0.11600
C3304       C  0.87613797  0.92499608  0.66346565    -0.05500
C3305       C  0.88310026  0.89963078  0.64440582    -0.16700
C3306       C  0.88528049  0.89794991  0.60428617     0.11700
S3307       S  0.87582509  0.98640276  0.65722809    -0.31700
S3308       S  0.90087382  0.86600095  0.58571946    -0.31700
H3309       H  0.91675702  0.87975116  0.55666498     0.29700
H3310       H  0.88249641  0.98235621  0.69584839     0.29700
H3311       H  0.87481488  0.96706994  0.58319374     0.20300
H3312       H  0.88853314  0.88098030  0.66093344     0.20300
C3313       C  0.53345824  0.80364400  0.74584229    -0.05600
C3314       C  0.50702045  0.81234962  0.76044010    -0.16700
C3315       C  0.48279185  0.79451763  0.75874956     0.11600
C3316       C  0.48511120  0.76721455  0.74276036    -0.05500
C3317       C  0.51134708  0.75884436  0.72736524    -0.16700
C3318       C  0.53550338  0.77658154  0.72904213     0.11700
S3319       S  0.94945060  0.80783381  0.77654030    -0.31700
S3320       S  0.56868089  0.76289617  0.71124941    -0.31700
H3321       H  0.58626135  0.77735865  0.73764938     0.29700
H3322       H  0.93171370  0.79003674  0.75434362     0.29700
H3323       H  0.50524944  0.83331515  0.77272186     0.20300
H3324       H  0.51326572  0.73774518  0.71554234     0.20300
C3325       C  0.48396036  0.76891356  0.00509227    -0.05600
C3326       C  0.51086039  0.76307908  0.52062595    -0.16700
C3327       C  0.53280132  0.78345387  0.52026685     0.11600
C3328       C  0.52761762  0.81075059  0.50516599    -0.05500
C3329       C  0.50057153  0.81676822  0.99003092    -0.16700
C3330       C  0.47860669  0.79619039  0.99012888     0.11700
S3331       S  0.56740590  0.77282503  0.53726677    -0.31700
S3332       S  0.94418228  0.80609689  0.97176961    -0.31700
H3333       H  0.92816116  0.78579017  0.99260594     0.29700
H3334       H  0.58306119  0.78886081  0.51008875     0.29700
H3335       H  0.51503336  0.74203070  0.53174314     0.20300
H3336       H  0.49654649  0.83772495  0.97852871     0.20300
C3337       C  0.92308122  0.68245250  0.91807285    -0.05600
C3338       C  0.94828777  0.68961173  0.89784691    -0.16700
C3339       C  0.94955376  0.68932188  0.85725087     0.11600
C3340       C  0.92424054  0.68431913  0.83562518    -0.05500
C3341       C  0.90047536  0.67337968  0.85597352    -0.16700
C3342       C  0.90024542  0.67077093  0.89607062     0.11700
S3343       S  0.98416579  0.69188238  0.83433127    -0.31700
S3344       S  0.87187750  0.64876290  0.91575668    -0.31700
H3345       H  0.88902487  0.63546705  0.94339938     0.29700
H3346       H  0.00020355  0.69809191  0.86747171     0.29700
H3347       H  0.96750991  0.69409663  0.91401969     0.20300
H3348       H  0.88240172  0.66467975  0.84042129     0.20300
C3349       C  0.92390459  0.68060156  0.58589311    -0.05600
C3350       C  0.89929509  0.67061256  0.60536480    -0.16700
C3351       C  0.89793241  0.66871441  0.64556098     0.11600
C3352       C  0.92085993  0.67951868  0.66808596    -0.05500
C3353       C  0.94677863  0.68499207  0.64880789    -0.16700
C3354       C  0.94896167  0.68486968  0.60859181     0.11700
S3355       S  0.86827769  0.64833954  0.66484032    -0.31700
S3356       S  0.98492720  0.68925264  0.59019216    -0.31700
H3357       H  0.98106353  0.67671257  0.55428242     0.29700
H3358       H  0.88427724  0.63538957  0.69407045     0.29700
H3359       H  0.88123487  0.66261366  0.58911689     0.20300
H3360       H  0.96597812  0.68880892  0.66543993     0.20300
loop_ 
_geom_bond_atom_site_label_1 
_geom_bond_atom_site_label_2 
_geom_bond_distance 
_geom_bond_site_symmetry_2 
_ccdc_geom_bond_type 
C1            C3   1.549       .  S
C1            C5   1.536       .  S
C1            C4   1.540       .  S
C1          C409   1.544       .  S
C2            C6   1.550       .  S
C2            C8   1.532       .  S
C2            C7   1.549       .  S
C2          C397   1.547       .  S
C3           C11   1.389       .  A
C3          C426   1.413   1_554  A
C4           C15   1.375       .  A
C4          C427   1.400   1_554  A
C5           C19   1.382       .  A
C5          C428   1.386   1_554  A
C6            C9   1.386       .  A
C6          C423   1.413       .  A
C7           C13   1.383       .  A
C7          C424   1.400       .  A
C8           C16   1.380       .  A
C8          C425   1.386       .  A
C9           H22   1.082       .  S
C9          N430   1.351       .  A
N10          C11   1.353       .  A
N10         C429   1.351   1_554  A
N10         C253   1.436       .  S
C11          H12   1.083       .  S
C13          H23   1.082       .  S
C13          N14   1.359       .  A
N14         C435   1.354       .  A
N14        C2065   1.435       .  S
C15          H21   1.081       .  S
C15         N434   1.354       .  A
C16          H18   1.082       .  S
C16         N437   1.358       .  A
N17          C19   1.358       .  A
N17         C436   1.358   1_554  A
N17         C110   1.435       .  S
C19          H20   1.083       .  S
C24          C26   1.525       .  S
C24          C28   1.543       .  S
C24          C27   1.549       .  S
C24         C412   1.543       .  S
C25          C29   1.537       .  S
C25          C31   1.553       .  S
C25          C30   1.544       .  S
C25         C400   1.549       .  S
C26          C34   1.376       .  A
C26          C29   1.386       .  A
C27          C38   1.380       .  A
C27          C30   1.399       .  A
C28          C42   1.384       .  A
C28          C31   1.416       .  A
C29          C32   1.382       .  A
C30          C36   1.380       .  A
C31          C39   1.387       .  A
C32          H45   1.082       .  S
C32          N33   1.360       .  A
N33          C34   1.355       .  A
N33         C134   1.433       .  S
C34          H35   1.083       .  S
C36          H46   1.081       .  S
C36          N37   1.358       .  A
N37          C38   1.357       .  A
N37        C2056   1.437       .  S
C38          H44   1.082       .  S
C39          H41   1.083       .  S
C39          N40   1.352       .  A
N40          C42   1.349       .  A
N40         C271   1.434       .  S
C42          H43   1.082       .  S
C47          C49   1.542       .  S
C47          C51   1.537       .  S
C47          C50   1.546       .  S
C47         C349   1.544       .  S
C48          C52   1.533       .  S
C48          C54   1.538       .  S
C48          C53   1.544       .  S
C48         C361   1.544       .  S
C49          C57   1.385       .  A
C49         C472   1.406       .  A
C50          C61   1.380       .  A
C50         C473   1.398       .  A
C51          C65   1.385       .  A
C51         C474   1.404       .  A
C52          C55   1.382       .  A
C52         C469   1.406   1_554  A
C53          C59   1.377       .  A
C53         C470   1.398   1_554  A
C54          C62   1.381       .  A
C54         C471   1.404   1_554  A
C55          H68   1.082       .  S
C55          N56   1.349   1_554  A
N56         C477   1.351       .  A
N56         C115   1.430       .  S
C57          H58   1.083       .  S
C57         N476   1.351       .  A
C59          H69   1.082       .  S
C59          N60   1.354   1_554  A
N60         C481   1.357       .  A
N60        C1180   1.433       .  S
C61          H67   1.081       .  S
C61         N480   1.357       .  A
C62          H64   1.083       .  S
C62          N63   1.350   1_554  A
N63         C485   1.352       .  A
N63         C252   1.430       .  S
C65          H66   1.082       .  S
C65         N483   1.352       .  A
C70          C72   1.545       .  S
C70          C74   1.549       .  S
C70          C73   1.536       .  S
C70         C364   1.548       .  S
C71          C75   1.539       .  S
C71          C77   1.538       .  S
C71          C76   1.541       .  S
C71         C352   1.546       .  S
C72          C80   1.383       .  A
C72          C75   1.403       .  A
C73          C84   1.377       .  A
C73          C76   1.395       .  A
C74          C88   1.388       .  A
C74          C77   1.405       .  A
C75          C78   1.381       .  A
C76          C82   1.374       .  A
C77          C85   1.378       .  A
C78          H91   1.083       .  S
C78          N79   1.352       .  A
N79          C80   1.353       .  A
N79         C133   1.430       .  S
C80          H81   1.082       .  S
C82          H92   1.082       .  S
C82          N83   1.354       .  A
N83          C84   1.354       .  A
N83        C1165   1.430       .  S
C84          H90   1.082       .  S
C85          H87   1.083       .  S
C85          N86   1.350       .  A
N86          C88   1.355       .  A
N86         C272   1.433       .  S
C88          H89   1.083       .  S
Zn93         O98   2.040       .  S
Zn93        O109   2.040       .  S
Zn93       O1782   1.997       .  S
Zn93       O1777   1.964   1_554  S
Zn94         O99   2.038       .  S
Zn94        O101   2.031   1_455  S
Zn94        O105   1.988       .  S
Zn94        O517   1.967       .  S
Zn95        O100   1.979       .  S
Zn95        O103   2.015       .  S
Zn95        O946   2.033   1_545  S
Zn95         O97   1.946   1_554  S
Zn96        O104   2.020       .  S
Zn96        O947   1.957       .  S
Zn96       O1788   2.001   1_455  S
Zn96       O1357   1.948       .  S
O97       Zn1773   1.964   1_456  S
O97        Zn514   1.967       .  S
O97       Zn1356   1.948   1_545  S
O98         C110   1.276       .  A
O99         C531   1.274       .  A
O100        C112   1.271       .  A
O101       C2210   1.275       .  A
O102      Zn1773   1.997       .  S
O102        C112   1.271   1_655  A
O103        C111   1.274       .  A
O104        C533   1.272       .  A
O105        C114   1.270       .  A
O106       Zn935   2.033       .  S
O106        C113   1.273   1_554  A
O107       Zn936   1.957   1_545  S
O107        C114   1.268       .  A
O108      Zn1776   2.001       .  S
O108        C535   1.270       .  A
O109        C955   1.276   1_544  A
C110       O2201   1.275   1_554  A
C111        N621   1.434       .  S
C111        O519   1.274   1_554  A
C112        C137   1.452       .  S
C113        N568   1.436       .  S
C113        O524   1.272       .  A
C114        C135   1.445       .  S
C115        O528   1.270       .  A
C115        O949   1.276   1_556  A
Zn116       O132   2.015       .  S
Zn116      O1801   2.001   1_455  S
Zn116       O965   1.962       .  S
Zn116       O960   1.946       .  S
Zn117       O122   2.040       .  S
Zn117       O124   2.035       .  S
Zn117      O1808   1.999       .  S
Zn117      O1800   1.960       .  S
Zn118       O123   1.984       .  S
Zn118       O126   2.019   1_455  S
Zn118       O129   2.027       .  S
Zn118       O120   1.965       .  S
Zn119       O127   2.014       .  S
Zn119       O130   1.978       .  S
Zn119       O971   2.035   1_545  S
Zn119       O120   1.947       .  S
O120       Zn956   1.946   1_545  S
O120      Zn1797   1.960   1_455  S
O121      Zn1796   2.001       .  S
O121        C133   1.270       .  A
O122        C134   1.277       .  A
O123        C135   1.269       .  A
O124        C973   1.275   1_545  A
O125       Zn956   1.962   1_545  S
O125        C135   1.268       .  A
O126       C1814   1.273       .  A
O127        C136   1.274       .  A
O128      Zn1797   1.999       .  S
O128        C137   1.271   1_655  A
O129        C136   1.274       .  A
O130        C137   1.270       .  A
O131       Zn959   2.035       .  S
O131        C138   1.274       .  A
O132        C138   1.271       .  A
C133        O964   1.275       .  A
C134       O1806   1.273       .  A
C136        N224   1.431       .  S
C138        N178   1.435       .  S
C139        C141   1.548       .  S
C139        C143   1.539       .  S
C139        C142   1.542       .  S
C139        C301   1.545       .  S
C140        C144   1.543       .  S
C140        C146   1.538       .  S
C140        C145   1.550       .  S
C140        C313   1.544       .  S
C141        C149   1.387       .  A
C141        C564   1.410       .  A
C142        C153   1.380       .  A
C142        C565   1.398       .  A
C143        C157   1.383       .  A
C143        C566   1.389       .  A
C144        C147   1.383       .  A
C144        C561   1.410   1_554  A
C145        C151   1.381       .  A
C145        C562   1.398   1_554  A
C146        C154   1.382       .  A
C146        C563   1.389   1_554  A
C147        H160   1.083       .  S
C147        N568   1.352   1_554  A
N148        C149   1.354       .  A
N148        C567   1.352       .  A
N148        C533   1.436       .  S
C149        H150   1.083       .  S
C151        H161   1.082       .  S
C151        N572   1.357       .  A
N152        C153   1.355       .  A
N152        C571   1.357       .  A
N152        C808   1.436       .  S
C153        H159   1.082       .  S
C154        H156   1.082       .  S
C154        N575   1.357       .  A
N155        C157   1.358       .  A
N155        C574   1.357       .  A
N155        C669   1.436       .  S
C157        H158   1.082       .  S
C162        C164   1.543       .  S
C162        C166   1.539       .  S
C162        C165   1.547       .  S
C162        C304   1.543       .  S
C163        C167   1.552       .  S
C163        C169   1.538       .  S
C163        C168   1.547       .  S
C163        C316   1.544       .  S
C164        C172   1.383       .  A
C164        C167   1.403       .  A
C165        C176   1.384       .  A
C165        C168   1.398       .  A
C166        C180   1.382       .  A
C166        C169   1.390       .  A
C167        C170   1.389       .  A
C168        C174   1.380       .  A
C169        C177   1.381       .  A
C170        H183   1.082       .  S
C170        N171   1.357       .  A
N171        C172   1.356       .  A
N171        C274   1.439       .  S
C172        H173   1.083       .  S
C174        H184   1.082       .  S
C174        N175   1.356       .  A
N175        C176   1.357       .  A
N175        C373   1.438       .  S
C176        H182   1.081       .  S
C177        H179   1.083       .  S
C177        N178   1.357       .  A
N178        C180   1.358       .  A
C180        H181   1.082       .  S
C185        C187   1.554       .  S
C185        C189   1.545       .  S
C185        C188   1.532       .  S
C185        C289   1.545       .  S
C186        C190   1.543       .  S
C186        C192   1.554       .  S
C186        C191   1.530       .  S
C186        C277   1.544       .  S
C187        C195   1.387       .  A
C187        C610   1.401   1_554  A
C188        C199   1.378       .  A
C188        C611   1.388   1_554  A
C189        C203   1.378       .  A
C189        C612   1.402   1_554  A
C190        C193   1.377       .  A
C190        C607   1.401       .  A
C191        C197   1.376       .  A
C191        C608   1.388       .  A
C192        C200   1.387       .  A
C192        C609   1.402       .  A
C193        H206   1.081       .  S
C193        N194   1.354       .  A
N194        C615   1.356       .  A
N194        C670   1.432       .  S
C195        H196   1.081       .  S
C195        N614   1.356       .  A
C197        H207   1.083       .  S
C197        N198   1.355       .  A
N198        C619   1.358       .  A
N198        C337   1.432       .  S
C199        H205   1.082       .  S
C199        N618   1.358   1_554  A
C200        H202   1.081       .  S
C200        N201   1.357       .  A
N201        C623   1.354       .  A
N201        C531   1.434       .  S
C203        H204   1.081       .  S
C203        N621   1.354       .  A
C208        C210   1.551       .  S
C208        C212   1.546       .  S
C208        C211   1.531       .  S
C208        C280   1.543       .  S
C209        C213   1.549       .  S
C209        C215   1.550       .  S
C209        C214   1.523       .  S
C209        C292   1.546       .  S
C210        C218   1.386       .  A
C210        C213   1.403       .  A
C211        C222   1.377       .  A
C211        C214   1.385       .  A
C212        C226   1.380       .  A
C212        C215   1.403       .  A
C213        C216   1.378       .  A
C214        C220   1.372       .  A
C215        C223   1.381       .  A
C216        H229   1.081       .  S
C216        N217   1.356       .  A
N217        C218   1.357       .  A
N217        C276   1.434       .  S
C218        H219   1.081       .  S
C220        H230   1.083       .  S
C220        N221   1.354       .  A
N221        C222   1.356       .  A
N221        C328   1.428       .  S
C222        H228   1.082       .  S
C223        H225   1.081       .  S
C223        N224   1.355       .  A
N224        C226   1.355       .  A
C226        H227   1.081       .  S
Zn231       O236   1.980       .  S
Zn231       O240   2.011       .  S
Zn231       O247   2.032       .  S
Zn231       O655   1.947       .  S
Zn232       O237   2.040       .  S
Zn232       O239   1.990       .  S
Zn232       O243   2.041       .  S
Zn232       O655   1.966       .  S
Zn233       O238   2.038       .  S
Zn233       O241   2.030       .  S
Zn233       O244   1.997       .  S
Zn233       O235   1.965       .  S
Zn234       O242   1.975       .  S
Zn234       O245   2.001       .  S
Zn234       O246   2.030       .  S
Zn234       O235   1.954       .  S
O235       Zn651   1.947   1_554  S
O235       Zn652   1.967   1_554  S
O236        C248   1.268       .  A
O237        C669   1.276       .  A
O238        C250   1.274       .  A
O239        C248   1.269       .  A
O240        C670   1.274       .  A
O241        C249   1.275       .  A
O242        C251   1.268       .  A
O243        C672   1.276       .  A
O244        C251   1.270       .  A
O245        C252   1.271   1_554  A
O246        C253   1.273       .  A
O247        C673   1.274       .  A
C248        C275   1.440       .  S
C249        N575   1.436       .  S
C249        O657   1.276   1_554  A
C250        N614   1.432       .  S
C250        O660   1.274   1_554  A
C251        C273   1.440       .  S
C252        O663   1.276       .  A
C253        O667   1.274   1_554  A
Zn254       O259   2.028       .  S
Zn254       O263   1.973       .  S
Zn254       O270   2.006       .  S
Zn254       O258   1.947       .  S
Zn255       O260   2.008       .  S
Zn255       O262   2.015       .  S
Zn255       O266   1.975       .  S
Zn255       O258   1.957       .  S
Zn256       O261   1.996       .  S
Zn256       O264   2.043       .  S
Zn256       O267   2.048       .  S
Zn256       O258   1.964       .  S
Zn257       O265   2.037       .  S
Zn257       O268   1.997       .  S
Zn257       O269   2.050       .  S
Zn257       O258   1.969       .  S
O259        C271   1.273       .  A
O260        C272   1.272       .  A
O261        C273   1.270       .  A
O262        C271   1.271       .  A
O263        C273   1.267       .  A
O264        C272   1.276       .  A
O265        C274   1.276       .  A
O266        C275   1.268       .  A
O267        C274   1.278       .  A
O268        C275   1.271       .  A
O269        C276   1.276       .  A
O270        C276   1.272       .  A
C277        C278   1.407       .  A
C277        C282   1.426       .  A
C278        C279   1.403       .  A
C278        H287   1.081       .  S
C279        C280   1.426       .  A
C279        S283   1.810       .  S
C280        C281   1.408       .  A
C281        C282   1.403       .  A
C281        H288   1.081       .  S
C282        S284   1.810       .  S
S283        H286   1.398       .  S
S284        H285   1.398       .  S
C289        C290   1.407       .  A
C289        C294   1.425       .  A
C290        C291   1.403       .  A
C290        H299   1.081       .  S
C291        C292   1.425       .  A
C291        S295   1.809       .  S
C292        C293   1.409       .  A
C293        C294   1.404       .  A
C293        H300   1.080       .  S
C294        S296   1.811       .  S
S295        H298   1.398       .  S
S296        H297   1.397       .  S
C301        C302   1.409       .  A
C301        C306   1.428       .  A
C302        C303   1.400       .  A
C302        H311   1.082       .  S
C303        C304   1.422       .  A
C303        S307   1.806       .  S
C304        C305   1.407       .  A
C305        C306   1.406       .  A
C305        H312   1.080       .  S
C306        S308   1.811       .  S
S307        H310   1.401       .  S
S308        H309   1.395       .  S
C313        C314   1.406       .  A
C313        C318   1.422       .  A
C314        C315   1.402       .  A
C314        H323   1.080       .  S
C315        C316   1.429       .  A
C315        S319   1.815       .  S
C316        C317   1.409       .  A
C317        C318   1.403       .  A
C317        H324   1.080       .  S
C318        S320   1.806       .  S
S319        H322   1.393       .  S
S320        H321   1.401       .  S
C325        C326   1.401       .  A
C325        C330   1.409   1_565  A
C325        N923   1.430       .  S
C326        C327   1.397   1_565  A
C326       H1175   1.083       .  S
C327        C328   1.410       .  A
C327        S331   1.803       .  S
C328        C329   1.400       .  A
C329        C330   1.400       .  A
C329        H336   1.082       .  S
C330        S332   1.806       .  S
S331        H334   1.407       .  S
S332       H1173   1.407       .  S
H333       S1172   1.407       .  S
H335       C1166   1.083       .  S
C337        C338   1.402       .  A
C337        C762   1.411       .  A
C338        C339   1.399       .  A
C338        H347   1.083       .  S
C339        C760   1.411   1_545  A
C339        S343   1.802       .  S
C340        C341   1.402   1_556  A
C340        C759   1.411   1_565  A
C340        N900   1.433       .  S
C341        C342   1.399   1_565  A
C341       H1188   1.083       .  S
C342        C757   1.411   1_554  A
C342        S344   1.803   1_545  S
S343       H1186   1.407       .  S
S344        H345   1.406   1_565  S
H346       S1183   1.407       .  S
H348       C1181   1.083       .  S
C349        C350   1.405       .  A
C349        C354   1.421       .  A
C350        C351   1.403       .  A
C350        H359   1.082       .  S
C351        C352   1.430       .  A
C351        S355   1.812       .  S
C352        C353   1.410       .  A
C353        C354   1.403       .  A
C353        H360   1.082       .  S
C354        S356   1.805       .  S
S355        H358   1.394       .  S
S356        H357   1.406       .  S
C361        C362   1.406       .  A
C361        C366   1.419       .  A
C362        C363   1.403       .  A
C362        H371   1.082       .  S
C363        C364   1.430       .  A
C363        S367   1.813       .  S
C364        C365   1.413       .  A
C365        C366   1.402       .  A
C365        H372   1.082       .  S
C366        S368   1.806       .  S
S367        H370   1.392       .  S
S368        H369   1.405       .  S
C373        C374   1.406       .  A
C373        C378   1.411       .  A
C374        C375   1.404   1_455  A
C374        H383   1.083       .  S
C375        C376   1.411       .  A
C375       S2059   1.802       .  S
C376        C377   1.403   1_655  A
C376       N1717   1.437       .  S
C377        C378   1.398       .  A
C377        H384   1.083       .  S
C378        S380   1.802       .  S
S379       C2055   1.802       .  S
S379        H382   1.406       .  S
S380        H381   1.406       .  S
C385        C390   1.411       .  A
C385        C806   1.401   1_655  A
C385       N1694   1.435       .  S
C386        C387   1.396       .  A
C386        C805   1.401   1_455  A
C386        H395   1.084       .  S
C387        C388   1.412       .  A
C387        S391   1.802       .  S
C388        C809   1.404   1_554  A
C388        N572   1.436       .  S
C389        C390   1.404   1_455  A
C389        C808   1.404       .  A
C389        H396   1.083   1_455  S
C390       S2072   1.802       .  S
S391        H394   1.407       .  S
S392       C2070   1.802       .  S
S392        H393   1.406       .  S
C397        C398   1.410       .  A
C397        C402   1.422       .  A
C398        C399   1.414       .  A
C398        H407   1.081       .  S
C399        C400   1.422       .  A
C399        S403   1.808       .  S
C400        C401   1.409       .  A
C401        C402   1.400       .  A
C401        H408   1.082       .  S
C402        S404   1.806       .  S
S403        H406   1.406       .  S
S404        H405   1.404       .  S
C409        C410   1.410       .  A
C409        C414   1.427       .  A
C410        C411   1.402       .  A
C410        H419   1.082       .  S
C411        C412   1.420       .  A
C411        S415   1.804       .  S
C412        C413   1.406       .  A
C413        C414   1.403       .  A
C413        H420   1.083       .  S
C414        S416   1.810       .  S
S415        H418   1.406       .  S
S416        H417   1.396       .  S
C421        C423   1.549       .  S
C421        C425   1.536       .  S
C421        C424   1.540       .  S
C421        C829   1.544       .  S
C422        C426   1.550       .  S
C422        C428   1.532       .  S
C422        C427   1.549       .  S
C422        C817   1.547       .  S
C423        C431   1.389       .  A
C424        C435   1.375       .  A
C425        C439   1.382       .  A
C426        C429   1.386       .  A
C427        C433   1.383       .  A
C428        C436   1.380       .  A
C429        H442   1.082       .  S
N430        C431   1.353       .  A
N430        C673   1.436       .  S
C431        H432   1.083       .  S
C433        H443   1.082       .  S
C433        N434   1.359   1_556  A
N434       C2485   1.435       .  S
C435        H441   1.082       .  S
C436        H438   1.082       .  S
N437        C439   1.358       .  A
N437        C530   1.435       .  S
C439        H440   1.083       .  S
C444        C446   1.525       .  S
C444        C448   1.543       .  S
C444        C447   1.549       .  S
C444        C832   1.543       .  S
C445        C449   1.537       .  S
C445        C451   1.553       .  S
C445        C450   1.544       .  S
C445        C820   1.549       .  S
C446        C454   1.376       .  A
C446        C449   1.386       .  A
C447        C458   1.380       .  A
C447        C450   1.399       .  A
C448        C462   1.384       .  A
C448        C451   1.416       .  A
C449        C452   1.382       .  A
C450        C456   1.380       .  A
C451        C459   1.387       .  A
C452        H465   1.082       .  S
C452        N453   1.360       .  A
N453        C454   1.355       .  A
N453        C554   1.433       .  S
C454        H455   1.083       .  S
C456        H466   1.081       .  S
C456        N457   1.358       .  A
N457        C458   1.357       .  A
N457       C2476   1.437       .  S
C458        H464   1.082       .  S
C459        H461   1.083       .  S
C459        N460   1.352       .  A
N460        C462   1.349       .  A
N460        C691   1.434       .  S
C462        H463   1.082       .  S
C467        C469   1.542       .  S
C467        C471   1.537       .  S
C467        C470   1.546       .  S
C467        C769   1.544       .  S
C468        C472   1.533       .  S
C468        C474   1.538       .  S
C468        C473   1.544       .  S
C468        C781   1.544       .  S
C469        C477   1.385       .  A
C470        C481   1.380       .  A
C471        C485   1.385       .  A
C472        C475   1.382       .  A
C473        C479   1.377       .  A
C474        C482   1.381       .  A
C475        H488   1.082       .  S
C475        N476   1.349       .  A
N476        C535   1.430       .  S
C477        H478   1.083       .  S
C479        H489   1.082       .  S
C479        N480   1.354       .  A
N480       C1600   1.433       .  S
C481        H487   1.081       .  S
C482        H484   1.083       .  S
C482        N483   1.350       .  A
N483        C672   1.430       .  S
C485        H486   1.082       .  S
C490        C492   1.545       .  S
C490        C494   1.549       .  S
C490        C493   1.536       .  S
C490        C784   1.548       .  S
C491        C495   1.539       .  S
C491        C497   1.538       .  S
C491        C496   1.541       .  S
C491        C772   1.546       .  S
C492        C500   1.383       .  A
C492        C495   1.403       .  A
C493        C504   1.377       .  A
C493        C496   1.395       .  A
C494        C508   1.388       .  A
C494        C497   1.405       .  A
C495        C498   1.381       .  A
C496        C502   1.374       .  A
C497        C505   1.378       .  A
C498        H511   1.083       .  S
C498        N499   1.352       .  A
N499        C500   1.353       .  A
N499        C553   1.430       .  S
C500        H501   1.082       .  S
C502        H512   1.082       .  S
C502        N503   1.354       .  A
N503        C504   1.354       .  A
N503       C1585   1.430       .  S
C504        H510   1.082       .  S
C505        H507   1.083       .  S
C505        N506   1.350       .  A
N506        C508   1.355       .  A
N506        C692   1.433       .  S
C508        H509   1.083       .  S
Zn513       O518   2.040       .  S
Zn513      O2202   1.997       .  S
Zn513       O529   2.040       .  S
Zn513      O2197   1.964       .  S
Zn514       O519   2.038       .  S
Zn514       O521   2.031   1_455  S
Zn514       O525   1.988       .  S
Zn515       O520   1.979       .  S
Zn515       O523   2.015       .  S
Zn515      O1366   2.033   1_545  S
Zn515       O517   1.946       .  S
Zn516       O524   2.020       .  S
Zn516      O1367   1.957       .  S
Zn516      O2208   2.001   1_455  S
Zn516       O937   1.948       .  S
O517      Zn2193   1.964   1_455  S
O517       Zn936   1.948   1_545  S
O518        C530   1.276       .  A
O520        C532   1.271       .  A
O521       C1790   1.275   1_556  A
O522      Zn2193   1.997       .  S
O522        C532   1.271   1_655  A
O523        C531   1.274       .  A
O525        C534   1.270       .  A
O526      Zn1355   2.033       .  S
O526        C533   1.273       .  A
O527      Zn1356   1.957   1_545  S
O527        C534   1.268       .  A
O528      Zn2196   2.001       .  S
O529       C1375   1.276   1_545  A
C530       O1781   1.275       .  A
C532        C557   1.453       .  S
C534        C555   1.445       .  S
C535       O1369   1.276       .  A
Zn536      O2221   2.001   1_455  S
Zn536      O1385   1.962       .  S
Zn536       O552   2.015       .  S
Zn536      O1380   1.946       .  S
Zn537       O542   2.040       .  S
Zn537       O544   2.035       .  S
Zn537      O2228   1.999       .  S
Zn537      O2220   1.960       .  S
Zn538       O543   1.984       .  S
Zn538       O546   2.019   1_455  S
Zn538       O549   2.027       .  S
Zn538       O540   1.965       .  S
Zn539       O547   2.014       .  S
Zn539       O550   1.978       .  S
Zn539      O1391   2.035   1_545  S
Zn539       O540   1.947       .  S
O540      Zn1376   1.946   1_545  S
O540      Zn2217   1.960   1_455  S
O541      Zn2216   2.001       .  S
O541        C553   1.270       .  A
O542        C554   1.277       .  A
O543        C555   1.269       .  A
O544       C1393   1.275   1_545  A
O545      Zn1376   1.962   1_545  S
O545        C555   1.268       .  A
O546       C2234   1.273       .  A
O547        C556   1.274       .  A
O548      Zn2217   1.999       .  S
O548        C557   1.271   1_655  A
O549        C556   1.274       .  A
O550        C557   1.270       .  A
O551      Zn1379   2.035       .  S
O551        C558   1.274       .  A
O552        C558   1.271       .  A
C553       O1384   1.275       .  A
C554       O2226   1.273       .  A
C556        N644   1.431       .  S
C558        N598   1.435       .  S
C559        C561   1.548       .  S
C559        C563   1.539       .  S
C559        C562   1.542       .  S
C559        C721   1.545       .  S
C560        C564   1.543       .  S
C560        C566   1.538       .  S
C560        C565   1.550       .  S
C560        C733   1.544       .  S
C561        C569   1.387       .  A
C562        C573   1.380       .  A
C563        C577   1.383       .  A
C564        C567   1.383       .  A
C565        C571   1.381       .  A
C566        C574   1.382       .  A
C567        H580   1.083       .  S
N568        C569   1.354       .  A
C569        H570   1.083       .  S
C571        H581   1.082       .  S
N572        C573   1.355   1_554  A
C573        H579   1.082       .  S
C574        H576   1.082       .  S
N575        C577   1.358   1_554  A
C577        H578   1.082       .  S
C582        C584   1.542       .  S
C582        C586   1.539       .  S
C582        C585   1.547       .  S
C582        C724   1.543       .  S
C583        C587   1.552       .  S
C583        C589   1.538       .  S
C583        C588   1.547       .  S
C583        C736   1.544       .  S
C584        C592   1.383       .  A
C584        C587   1.403       .  A
C585        C596   1.384       .  A
C585        C588   1.398       .  A
C586        C600   1.382       .  A
C586        C589   1.390       .  A
C587        C590   1.389       .  A
C588        C594   1.380       .  A
C589        C597   1.381       .  A
C590        H603   1.082       .  S
C590        N591   1.357       .  A
N591        C592   1.356       .  A
N591        C694   1.439       .  S
C592        H593   1.083       .  S
C594        H604   1.082       .  S
C594        N595   1.356       .  A
N595        C596   1.357       .  A
N595        C793   1.438       .  S
C596        H602   1.081       .  S
C597        H599   1.083       .  S
C597        N598   1.356       .  A
N598        C600   1.358       .  A
C600        H601   1.082       .  S
C605        C607   1.554       .  S
C605        C609   1.545       .  S
C605        C608   1.532       .  S
C605        C709   1.545       .  S
C606        C610   1.543       .  S
C606        C612   1.554       .  S
C606        C611   1.530       .  S
C606        C697   1.544       .  S
C607        C615   1.387       .  A
C608        C619   1.378       .  A
C609        C623   1.378       .  A
C610        C613   1.377       .  A
C611        C617   1.376       .  A
C612        C620   1.387       .  A
C613        H626   1.081       .  S
C613        N614   1.354   1_556  A
C615        H616   1.081       .  S
C617        H627   1.083       .  S
C617        N618   1.355       .  A
N618        C757   1.432       .  S
C619        H625   1.082       .  S
C620        H622   1.081       .  S
C620        N621   1.357   1_556  A
C623        H624   1.081       .  S
C628        C630   1.551       .  S
C628        C632   1.546       .  S
C628        C631   1.531       .  S
C628        C700   1.543       .  S
C629        C633   1.549       .  S
C629        C635   1.550       .  S
C629        C634   1.523       .  S
C629        C712   1.546       .  S
C630        C638   1.386       .  A
C630        C633   1.403       .  A
C631        C642   1.377       .  A
C631        C634   1.385       .  A
C632        C646   1.380       .  A
C632        C635   1.403       .  A
C633        C636   1.378       .  A
C634        C640   1.372       .  A
C635        C643   1.381       .  A
C636        H649   1.081       .  S
C636        N637   1.356       .  A
N637        C638   1.357       .  A
N637        C696   1.434       .  S
C638        H639   1.081       .  S
C640        H650   1.083       .  S
C640        N641   1.354       .  A
N641        C642   1.356       .  A
N641        C748   1.428       .  S
C642        H648   1.082       .  S
C643        H645   1.081       .  S
C643        N644   1.355       .  A
N644        C646   1.355       .  A
C646        H647   1.081       .  S
Zn651       O656   1.980       .  S
Zn651       O660   2.011       .  S
Zn651       O667   2.032       .  S
Zn652       O657   2.040       .  S
Zn652       O659   1.990       .  S
Zn652       O663   2.041       .  S
Zn653       O658   2.038       .  S
Zn653       O661   2.030       .  S
Zn653       O664   1.997       .  S
Zn653       O655   1.965       .  S
Zn654       O662   1.975       .  S
Zn654       O665   2.001       .  S
Zn654       O666   2.030       .  S
Zn654       O655   1.954       .  S
O656        C668   1.268       .  A
O658        C670   1.274       .  A
O659        C668   1.269       .  A
O661        C669   1.275       .  A
O662        C671   1.268       .  A
O664        C671   1.270       .  A
O665        C672   1.271       .  A
O666        C673   1.273       .  A
C668        C695   1.440       .  S
C671        C693   1.440       .  S
Zn674       O679   2.028       .  S
Zn674       O683   1.973       .  S
Zn674       O690   2.006       .  S
Zn674       O678   1.947       .  S
Zn675       O680   2.008       .  S
Zn675       O682   2.015       .  S
Zn675       O686   1.975       .  S
Zn675       O678   1.957       .  S
Zn676       O681   1.996       .  S
Zn676       O684   2.043       .  S
Zn676       O687   2.048       .  S
Zn676       O678   1.964       .  S
Zn677       O685   2.037       .  S
Zn677       O688   1.997       .  S
Zn677       O689   2.050       .  S
Zn677       O678   1.969       .  S
O679        C691   1.273       .  A
O680        C692   1.272       .  A
O681        C693   1.270       .  A
O682        C691   1.271       .  A
O683        C693   1.267       .  A
O684        C692   1.276       .  A
O685        C694   1.276       .  A
O686        C695   1.268       .  A
O687        C694   1.278       .  A
O688        C695   1.271       .  A
O689        C696   1.276       .  A
O690        C696   1.272       .  A
C697        C698   1.407       .  A
C697        C702   1.426       .  A
C698        C699   1.403       .  A
C698        H707   1.081       .  S
C699        C700   1.426       .  A
C699        S703   1.810       .  S
C700        C701   1.408       .  A
C701        C702   1.403       .  A
C701        H708   1.081       .  S
C702        S704   1.810       .  S
S703        H706   1.398       .  S
S704        H705   1.398       .  S
C709        C710   1.407       .  A
C709        C714   1.425       .  A
C710        C711   1.403       .  A
C710        H719   1.081       .  S
C711        C712   1.425       .  A
C711        S715   1.809       .  S
C712        C713   1.409       .  A
C713        C714   1.404       .  A
C713        H720   1.080       .  S
C714        S716   1.811       .  S
S715        H718   1.398       .  S
S716        H717   1.397       .  S
C721        C722   1.409       .  A
C721        C726   1.428       .  A
C722        C723   1.400       .  A
C722        H731   1.082       .  S
C723        C724   1.422       .  A
C723        S727   1.806       .  S
C724        C725   1.407       .  A
C725        C726   1.406       .  A
C725        H732   1.080       .  S
C726        S728   1.811       .  S
S727        H730   1.401       .  S
S728        H729   1.395       .  S
C733        C734   1.406       .  A
C733        C738   1.422       .  A
C734        C735   1.402       .  A
C734        H743   1.080       .  S
C735        C736   1.429       .  A
C735        S739   1.815       .  S
C736        C737   1.409       .  A
C737        C738   1.403       .  A
C737        H744   1.080       .  S
C738        S740   1.806       .  S
S739        H742   1.393       .  S
S740        H741   1.401       .  S
C745        C746   1.401       .  A
C745        C750   1.409   1_565  A
C745       N1343   1.430       .  S
C746        C747   1.397   1_565  A
C746       H1595   1.083       .  S
C747        C748   1.410       .  A
C747        S751   1.803       .  S
C748        C749   1.400       .  A
C749        C750   1.400       .  A
C749        H756   1.082       .  S
C750        S752   1.806       .  S
S751        H754   1.407       .  S
S752       H1593   1.407       .  S
H753       S1592   1.407       .  S
H755       C1586   1.083       .  S
C757        C758   1.402       .  A
C758        C759   1.399       .  A
C758        H767   1.083       .  S
C759        S763   1.802       .  S
C760        C761   1.402       .  A
C760       N1320   1.433       .  S
C761        C762   1.399   1_565  A
C761       H1608   1.083       .  S
C762        S764   1.803   1_545  S
S763       H1606   1.407       .  S
S764        H765   1.406   1_565  S
H766       S1603   1.407       .  S
H768       C1601   1.083       .  S
C769        C770   1.405       .  A
C769        C774   1.421       .  A
C770        C771   1.403       .  A
C770        H779   1.082       .  S
C771        C772   1.430       .  A
C771        S775   1.812       .  S
C772        C773   1.410       .  A
C773        C774   1.403       .  A
C773        H780   1.082       .  S
C774        S776   1.805       .  S
S775        H778   1.394       .  S
S776        H777   1.406       .  S
C781        C782   1.406       .  A
C781        C786   1.419       .  A
C782        C783   1.403       .  A
C782        H791   1.082       .  S
C783        C784   1.430       .  A
C783        S787   1.813       .  S
C784        C785   1.413       .  A
C785        C786   1.402       .  A
C785        H792   1.082       .  S
C786        S788   1.806       .  S
S787        H790   1.392       .  S
S788        H789   1.405       .  S
C793        C794   1.406       .  A
C793        C798   1.411       .  A
C794        C795   1.404   1_455  A
C794        H803   1.083       .  S
C795        C796   1.411       .  A
C795       S2479   1.802       .  S
C796        C797   1.403   1_655  A
C796       N2137   1.437       .  S
C797        C798   1.398       .  A
C797        H804   1.083       .  S
C798        S800   1.802       .  S
S799       C2475   1.802       .  S
S799        H802   1.406       .  S
S800        H801   1.406       .  S
C805        C810   1.411   1_554  A
C805       N2114   1.435       .  S
C806        C807   1.396       .  A
C806        H815   1.084       .  S
C807        C808   1.412       .  A
C807        S811   1.802       .  S
C809        C810   1.404   1_455  A
C809        H816   1.083   1_455  S
C810       S2492   1.802       .  S
S811        H814   1.407       .  S
S812       C2490   1.802       .  S
S812        H813   1.406       .  S
C817        C818   1.410       .  A
C817        C822   1.422       .  A
C818        C819   1.414       .  A
C818        H827   1.081       .  S
C819        C820   1.422       .  A
C819        S823   1.808       .  S
C820        C821   1.409       .  A
C821        C822   1.400       .  A
C821        H828   1.082       .  S
C822        S824   1.806       .  S
S823        H826   1.406       .  S
S824        H825   1.404       .  S
C829        C830   1.410       .  A
C829        C834   1.427       .  A
C830        C831   1.402       .  A
C830        H839   1.082       .  S
C831        C832   1.420       .  A
C831        S835   1.804       .  S
C832        C833   1.406       .  A
C833        C834   1.403       .  A
C833        H840   1.083       .  S
C834        S836   1.810       .  S
S835        H838   1.406       .  S
S836        H837   1.396       .  S
C841        C843   1.549       .  S
C841        C845   1.536       .  S
C841        C844   1.540       .  S
C841       C1249   1.544       .  S
C842        C846   1.550       .  S
C842        C848   1.532       .  S
C842        C847   1.549       .  S
C842       C1237   1.547       .  S
C843        C851   1.389       .  A
C843       C1266   1.413   1_554  A
C844        C855   1.375       .  A
C844       C1267   1.400   1_554  A
C845        C859   1.382       .  A
C845       C1268   1.386   1_554  A
C846       C1263   1.413       .  A
C846        C849   1.386       .  A
C847       C1264   1.400       .  A
C847        C853   1.383       .  A
C848       C1265   1.386       .  A
C848        C856   1.380       .  A
C849        H862   1.082       .  S
C849       N1270   1.351       .  A
N850       C1269   1.351   1_554  A
N850        C851   1.353       .  A
N850       C1093   1.436       .  S
C851        H852   1.083       .  S
C853        H863   1.082       .  S
C853        N854   1.359       .  A
N854       C1275   1.354       .  A
N854       C2905   1.435       .  S
C855        H861   1.082       .  S
C855       N1274   1.354       .  A
C856        H858   1.082       .  S
C856       N1277   1.358       .  A
N857       C1276   1.358   1_554  A
N857        C859   1.358       .  A
N857        C950   1.435       .  S
C859        H860   1.083       .  S
C864        C866   1.525       .  S
C864        C868   1.543       .  S
C864        C867   1.549       .  S
C864       C1252   1.543       .  S
C865        C869   1.537       .  S
C865        C871   1.553       .  S
C865        C870   1.544       .  S
C865       C1240   1.549       .  S
C866        C874   1.376       .  A
C866        C869   1.386       .  A
C867        C878   1.380       .  A
C867        C870   1.399       .  A
C868        C882   1.384       .  A
C868        C871   1.416       .  A
C869        C872   1.382       .  A
C870        C876   1.380       .  A
C871        C879   1.387       .  A
C872        H885   1.082       .  S
C872        N873   1.360       .  A
N873        C874   1.355       .  A
N873        C974   1.433       .  S
C874        H875   1.083       .  S
C876        H886   1.081       .  S
C876        N877   1.358       .  A
N877        C878   1.357       .  A
N877       C2896   1.437       .  S
C878        H884   1.082       .  S
C879        H881   1.083       .  S
C879        N880   1.352       .  A
N880        C882   1.349       .  A
N880       C1111   1.434       .  S
C882        H883   1.082       .  S
C887        C889   1.542       .  S
C887        C891   1.537       .  S
C887        C890   1.546       .  S
C887       C1189   1.544       .  S
C888        C892   1.533       .  S
C888        C894   1.538       .  S
C888        C893   1.544       .  S
C888       C1201   1.544       .  S
C889        C897   1.385       .  A
C889       C1312   1.406       .  A
C890        C901   1.380       .  A
C890       C1313   1.398       .  A
C891        C905   1.385       .  A
C891       C1314   1.404       .  A
C892       C1309   1.406   1_554  A
C892        C895   1.382       .  A
C893       C1310   1.398   1_554  A
C893        C899   1.377       .  A
C894       C1311   1.404   1_554  A
C894        C902   1.381       .  A
C895        H908   1.082       .  S
C895        N896   1.349   1_554  A
N896       C1317   1.351       .  A
N896        C955   1.430       .  S
C897        H898   1.083       .  S
C897       N1316   1.351       .  A
C899        H909   1.082       .  S
C899        N900   1.354   1_554  A
N900       C1321   1.357       .  A
C901        H907   1.081       .  S
C901       N1320   1.357       .  A
C902        H904   1.083       .  S
C902        N903   1.350   1_554  A
N903       C1325   1.352       .  A
N903       C1092   1.430       .  S
C905        H906   1.082       .  S
C905       N1323   1.352       .  A
C910        C912   1.545       .  S
C910        C914   1.549       .  S
C910        C913   1.536       .  S
C910       C1204   1.548       .  S
C911        C915   1.539       .  S
C911        C917   1.538       .  S
C911        C916   1.541       .  S
C911       C1192   1.546       .  S
C912        C920   1.383       .  A
C912        C915   1.403       .  A
C913        C924   1.377       .  A
C913        C916   1.395       .  A
C914        C928   1.388       .  A
C914        C917   1.405       .  A
C915        C918   1.381       .  A
C916        C922   1.374       .  A
C917        C925   1.378       .  A
C918        H931   1.083       .  S
C918        N919   1.352       .  A
N919        C920   1.353       .  A
N919        C973   1.430       .  S
C920        H921   1.082       .  S
C922        H932   1.082       .  S
C922        N923   1.354       .  A
N923        C924   1.354       .  A
C924        H930   1.082       .  S
C925        H927   1.083       .  S
C925        N926   1.351       .  A
N926        C928   1.355       .  A
N926       C1112   1.433       .  S
C928        H929   1.083       .  S
Zn933       O938   2.040       .  S
Zn933      O2622   1.997       .  S
Zn933       O949   2.040       .  S
Zn933      O2617   1.964   1_554  S
Zn934       O939   2.038       .  S
Zn934       O941   2.031   1_455  S
Zn934       O945   1.988       .  S
Zn934      O1357   1.967       .  S
Zn935       O940   1.979       .  S
Zn935       O943   2.015       .  S
Zn935       O937   1.946   1_554  S
Zn936       O944   2.020       .  S
Zn936      O2628   2.001   1_455  S
O937      Zn2613   1.964   1_456  S
O937      Zn1354   1.967       .  S
O938        C950   1.276       .  A
O939       C1371   1.274       .  A
O940        C952   1.271       .  A
O941       C3050   1.275       .  A
O942      Zn2613   1.997       .  S
O942        C952   1.271   1_655  A
O943        C951   1.274       .  A
O944       C1373   1.272       .  A
O945        C954   1.270       .  A
O946        C953   1.273   1_554  A
O947        C954   1.268       .  A
O948      Zn2616   2.001       .  S
O948       C1375   1.270       .  A
C950       O3041   1.275   1_554  A
C951       N1461   1.434       .  S
C951       O1359   1.274   1_554  A
C952        C977   1.452       .  S
C953       N1408   1.436       .  S
C953       O1364   1.272       .  A
C954        C975   1.445       .  S
C955       O1368   1.270       .  A
Zn956      O2641   2.001   1_455  S
Zn956       O972   2.015       .  S
Zn957       O962   2.040       .  S
Zn957       O964   2.035       .  S
Zn957      O2648   1.999       .  S
Zn957      O2640   1.960       .  S
Zn958       O963   1.984       .  S
Zn958       O966   2.019   1_455  S
Zn958       O969   2.027       .  S
Zn958       O960   1.965       .  S
Zn959       O967   2.014       .  S
Zn959       O970   1.978       .  S
Zn959       O960   1.947       .  S
O960      Zn2637   1.960   1_455  S
O961      Zn2636   2.001       .  S
O961        C973   1.270       .  A
O962        C974   1.277       .  A
O963        C975   1.269       .  A
O965        C975   1.268       .  A
O966       C2654   1.273       .  A
O967        C976   1.274       .  A
O968      Zn2637   1.999       .  S
O968        C977   1.271   1_655  A
O969        C976   1.274       .  A
O970        C977   1.270       .  A
O971        C978   1.274       .  A
O972        C978   1.271       .  A
C974       O2646   1.273       .  A
C976       N1064   1.431       .  S
C978       N1018   1.435       .  S
C979        C981   1.548       .  S
C979        C983   1.539       .  S
C979        C982   1.542       .  S
C979       C1141   1.545       .  S
C980        C984   1.543       .  S
C980        C986   1.538       .  S
C980        C985   1.550       .  S
C980       C1153   1.544       .  S
C981        C989   1.387       .  A
C981       C1404   1.410       .  A
C982        C993   1.380       .  A
C982       C1405   1.398       .  A
C983        C997   1.383       .  A
C983       C1406   1.389       .  A
C984       C1401   1.410   1_554  A
C984        C987   1.383       .  A
C985       C1402   1.398   1_554  A
C985        C991   1.381       .  A
C986       C1403   1.389   1_554  A
C986        C994   1.382       .  A
C987       H1000   1.083       .  S
C987       N1408   1.352   1_554  A
N988       C1407   1.352       .  A
N988        C989   1.354       .  A
N988       C1373   1.436       .  S
C989        H990   1.083       .  S
C991       H1001   1.082       .  S
C991       N1412   1.357       .  A
N992       C1411   1.357       .  A
N992        C993   1.355       .  A
N992       C1648   1.436       .  S
C993        H999   1.082       .  S
C994        H996   1.082       .  S
C994       N1415   1.357       .  A
N995       C1414   1.357       .  A
N995        C997   1.358       .  A
N995       C1509   1.436       .  S
C997        H998   1.082       .  S
C1002      C1004   1.543       .  S
C1002      C1006   1.539       .  S
C1002      C1005   1.547       .  S
C1002      C1144   1.543       .  S
C1003      C1007   1.552       .  S
C1003      C1009   1.538       .  S
C1003      C1008   1.547       .  S
C1003      C1156   1.544       .  S
C1004      C1012   1.383       .  A
C1004      C1007   1.403       .  A
C1005      C1016   1.384       .  A
C1005      C1008   1.398       .  A
C1006      C1020   1.382       .  A
C1006      C1009   1.390       .  A
C1007      C1010   1.389       .  A
C1008      C1014   1.380       .  A
C1009      C1017   1.381       .  A
C1010      H1023   1.082       .  S
C1010      N1011   1.357       .  A
N1011      C1012   1.356       .  A
N1011      C1114   1.439       .  S
C1012      H1013   1.083       .  S
C1014      H1024   1.082       .  S
C1014      N1015   1.356       .  A
N1015      C1016   1.357       .  A
N1015      C1213   1.438       .  S
C1016      H1022   1.081       .  S
C1017      H1019   1.083       .  S
C1017      N1018   1.356       .  A
N1018      C1020   1.358       .  A
C1020      H1021   1.082       .  S
C1025      C1027   1.554       .  S
C1025      C1029   1.545       .  S
C1025      C1028   1.532       .  S
C1025      C1129   1.545       .  S
C1026      C1030   1.543       .  S
C1026      C1032   1.554       .  S
C1026      C1031   1.530       .  S
C1026      C1117   1.544       .  S
C1027      C1035   1.387       .  A
C1027      C1450   1.401   1_554  A
C1028      C1039   1.378       .  A
C1028      C1451   1.388   1_554  A
C1029      C1043   1.377       .  A
C1029      C1452   1.402   1_554  A
C1030      C1447   1.401       .  A
C1030      C1033   1.377       .  A
C1031      C1448   1.388       .  A
C1031      C1037   1.376       .  A
C1032      C1449   1.402       .  A
C1032      C1040   1.387       .  A
C1033      H1046   1.081       .  S
C1033      N1034   1.354       .  A
N1034      C1455   1.356       .  A
N1034      C1510   1.432       .  S
C1035      H1036   1.081       .  S
C1035      N1454   1.356       .  A
C1037      H1047   1.083       .  S
C1037      N1038   1.355       .  A
N1038      C1459   1.358       .  A
N1038      C1177   1.432       .  S
C1039      H1045   1.082       .  S
C1039      N1458   1.357   1_554  A
C1040      H1042   1.081       .  S
C1040      N1041   1.357       .  A
N1041      C1463   1.354       .  A
N1041      C1371   1.434       .  S
C1043      H1044   1.081       .  S
C1043      N1461   1.354       .  A
C1048      C1050   1.551       .  S
C1048      C1052   1.546       .  S
C1048      C1051   1.531       .  S
C1048      C1120   1.543       .  S
C1049      C1053   1.549       .  S
C1049      C1055   1.550       .  S
C1049      C1054   1.523       .  S
C1049      C1132   1.546       .  S
C1050      C1058   1.386       .  A
C1050      C1053   1.403       .  A
C1051      C1062   1.377       .  A
C1051      C1054   1.385       .  A
C1052      C1066   1.380       .  A
C1052      C1055   1.403       .  A
C1053      C1056   1.378       .  A
C1054      C1060   1.372       .  A
C1055      C1063   1.381       .  A
C1056      H1069   1.081       .  S
C1056      N1057   1.356       .  A
N1057      C1058   1.357       .  A
N1057      C1116   1.434       .  S
C1058      H1059   1.081       .  S
C1060      H1070   1.083       .  S
C1060      N1061   1.354       .  A
N1061      C1062   1.356       .  A
N1061      C1168   1.428       .  S
C1062      H1068   1.082       .  S
C1063      H1065   1.081       .  S
C1063      N1064   1.355       .  A
N1064      C1066   1.355       .  A
C1066      H1067   1.081       .  S
Zn1071     O1076   1.980       .  S
Zn1071     O1080   2.011       .  S
Zn1071     O1087   2.032       .  S
Zn1071     O1495   1.947       .  S
Zn1072     O1077   2.040       .  S
Zn1072     O1079   1.990       .  S
Zn1072     O1083   2.041       .  S
Zn1072     O1495   1.966       .  S
Zn1073     O1078   2.038       .  S
Zn1073     O1081   2.030       .  S
Zn1073     O1084   1.997       .  S
Zn1073     O1075   1.965       .  S
Zn1074     O1082   1.975       .  S
Zn1074     O1085   2.001       .  S
Zn1074     O1086   2.030       .  S
Zn1074     O1075   1.954       .  S
O1075     Zn1491   1.947   1_554  S
O1075     Zn1492   1.966   1_554  S
O1076      C1088   1.268       .  A
O1077      C1509   1.276       .  A
O1078      C1090   1.274       .  A
O1079      C1088   1.269       .  A
O1080      C1510   1.274       .  A
O1081      C1089   1.275       .  A
O1082      C1091   1.268       .  A
O1083      C1512   1.276       .  A
O1084      C1091   1.270       .  A
O1085      C1092   1.271   1_554  A
O1086      C1093   1.273       .  A
O1087      C1513   1.274       .  A
C1088      C1115   1.440       .  S
C1089      N1415   1.436       .  S
C1089      O1497   1.276   1_554  A
C1090      N1454   1.432       .  S
C1090      O1500   1.274   1_554  A
C1091      C1113   1.440       .  S
C1092      O1503   1.276       .  A
C1093      O1507   1.274   1_554  A
Zn1094     O1099   2.028       .  S
Zn1094     O1103   1.973       .  S
Zn1094     O1110   2.006       .  S
Zn1094     O1098   1.947       .  S
Zn1095     O1100   2.008       .  S
Zn1095     O1102   2.015       .  S
Zn1095     O1106   1.975       .  S
Zn1095     O1098   1.957       .  S
Zn1096     O1101   1.996       .  S
Zn1096     O1104   2.043       .  S
Zn1096     O1107   2.048       .  S
Zn1096     O1098   1.964       .  S
Zn1097     O1105   2.037       .  S
Zn1097     O1108   1.997       .  S
Zn1097     O1109   2.050       .  S
Zn1097     O1098   1.969       .  S
O1099      C1111   1.273       .  A
O1100      C1112   1.272       .  A
O1101      C1113   1.270       .  A
O1102      C1111   1.271       .  A
O1103      C1113   1.267       .  A
O1104      C1112   1.276       .  A
O1105      C1114   1.276       .  A
O1106      C1115   1.268       .  A
O1107      C1114   1.278       .  A
O1108      C1115   1.271       .  A
O1109      C1116   1.276       .  A
O1110      C1116   1.272       .  A
C1117      C1118   1.407       .  A
C1117      C1122   1.426       .  A
C1118      C1119   1.403       .  A
C1118      H1127   1.081       .  S
C1119      C1120   1.426       .  A
C1119      S1123   1.810       .  S
C1120      C1121   1.408       .  A
C1121      C1122   1.403       .  A
C1121      H1128   1.081       .  S
C1122      S1124   1.810       .  S
S1123      H1126   1.398       .  S
S1124      H1125   1.398       .  S
C1129      C1130   1.407       .  A
C1129      C1134   1.425       .  A
C1130      C1131   1.403       .  A
C1130      H1139   1.081       .  S
C1131      C1132   1.425       .  A
C1131      S1135   1.809       .  S
C1132      C1133   1.409       .  A
C1133      C1134   1.404       .  A
C1133      H1140   1.080       .  S
C1134      S1136   1.811       .  S
S1135      H1138   1.398       .  S
S1136      H1137   1.397       .  S
C1141      C1142   1.409       .  A
C1141      C1146   1.428       .  A
C1142      C1143   1.400       .  A
C1142      H1151   1.082       .  S
C1143      C1144   1.422       .  A
C1143      S1147   1.806       .  S
C1144      C1145   1.407       .  A
C1145      C1146   1.406       .  A
C1145      H1152   1.080       .  S
C1146      S1148   1.811       .  S
S1147      H1150   1.401       .  S
S1148      H1149   1.395       .  S
C1153      C1154   1.406       .  A
C1153      C1158   1.422       .  A
C1154      C1155   1.402       .  A
C1154      H1163   1.080       .  S
C1155      C1156   1.429       .  A
C1155      S1159   1.815       .  S
C1156      C1157   1.409       .  A
C1157      C1158   1.403       .  A
C1157      H1164   1.080       .  S
C1158      S1160   1.806       .  S
S1159      H1162   1.393       .  S
S1160      H1161   1.401       .  S
C1165      C1166   1.401       .  A
C1165      C1170   1.409       .  A
C1166      C1167   1.397       .  A
C1167      C1168   1.410       .  A
C1167      S1171   1.803       .  S
C1168      C1169   1.400       .  A
C1169      C1170   1.400       .  A
C1169      H1176   1.082       .  S
C1170      S1172   1.806       .  S
S1171      H1174   1.407       .  S
C1177      C1178   1.402       .  A
C1177      C1602   1.411       .  A
C1178      C1179   1.399       .  A
C1178      H1187   1.083       .  S
C1179      C1600   1.411       .  A
C1179      S1183   1.802       .  S
C1180      C1599   1.411       .  A
C1180      C1181   1.402   1_556  A
C1181      C1182   1.399       .  A
C1182      C1597   1.411   1_554  A
C1182      S1184   1.803       .  S
S1184      H1185   1.406       .  S
C1189      C1190   1.405       .  A
C1189      C1194   1.421       .  A
C1190      C1191   1.403       .  A
C1190      H1199   1.082       .  S
C1191      C1192   1.430       .  A
C1191      S1195   1.812       .  S
C1192      C1193   1.410       .  A
C1193      C1194   1.403       .  A
C1193      H1200   1.082       .  S
C1194      S1196   1.805       .  S
S1195      H1198   1.394       .  S
S1196      H1197   1.406       .  S
C1201      C1202   1.406       .  A
C1201      C1206   1.419       .  A
C1202      C1203   1.403       .  A
C1202      H1211   1.082       .  S
C1203      C1204   1.430       .  A
C1203      S1207   1.813       .  S
C1204      C1205   1.413       .  A
C1205      C1206   1.402       .  A
C1205      H1212   1.082       .  S
C1206      S1208   1.806       .  S
S1207      H1210   1.392       .  S
S1208      H1209   1.405       .  S
C1213      C1214   1.406       .  A
C1213      C1218   1.411       .  A
C1214      C1215   1.404   1_455  A
C1214      H1223   1.083       .  S
C1215      C1216   1.411       .  A
C1215      S2899   1.802       .  S
C1216      C1217   1.403   1_655  A
C1216      N2557   1.437       .  S
C1217      C1218   1.398       .  A
C1217      H1224   1.083       .  S
C1218      S1220   1.802       .  S
S1219      C2895   1.802       .  S
S1219      H1222   1.406       .  S
S1220      H1221   1.406       .  S
C1225      C1646   1.401   1_655  A
C1225      C1230   1.411       .  A
C1225      N2534   1.435       .  S
C1226      C1645   1.401   1_455  A
C1226      C1227   1.396       .  A
C1226      H1235   1.084       .  S
C1227      C1228   1.412       .  A
C1227      S1231   1.802       .  S
C1228      C1649   1.404   1_554  A
C1228      N1412   1.436       .  S
C1229      C1648   1.404       .  A
C1229      C1230   1.404   1_455  A
C1229      H1236   1.083   1_455  S
C1230      S2912   1.802       .  S
S1231      H1234   1.407       .  S
S1232      C2910   1.802       .  S
S1232      H1233   1.406       .  S
C1237      C1238   1.410       .  A
C1237      C1242   1.422       .  A
C1238      C1239   1.414       .  A
C1238      H1247   1.081       .  S
C1239      C1240   1.422       .  A
C1239      S1243   1.808       .  S
C1240      C1241   1.409       .  A
C1241      C1242   1.400       .  A
C1241      H1248   1.082       .  S
C1242      S1244   1.806       .  S
S1243      H1246   1.406       .  S
S1244      H1245   1.404       .  S
C1249      C1250   1.410       .  A
C1249      C1254   1.427       .  A
C1250      C1251   1.402       .  A
C1250      H1259   1.082       .  S
C1251      C1252   1.420       .  A
C1251      S1255   1.804       .  S
C1252      C1253   1.406       .  A
C1253      C1254   1.403       .  A
C1253      H1260   1.083       .  S
C1254      S1256   1.810       .  S
S1255      H1258   1.406       .  S
S1256      H1257   1.396       .  S
C1261      C1263   1.549       .  S
C1261      C1265   1.536       .  S
C1261      C1264   1.540       .  S
C1261      C1669   1.544       .  S
C1262      C1266   1.550       .  S
C1262      C1268   1.532       .  S
C1262      C1267   1.549       .  S
C1262      C1657   1.547       .  S
C1263      C1271   1.389       .  A
C1264      C1275   1.375       .  A
C1265      C1279   1.382       .  A
C1266      C1269   1.386       .  A
C1267      C1273   1.383       .  A
C1268      C1276   1.380       .  A
C1269      H1282   1.082       .  S
N1270      C1271   1.353       .  A
N1270      C1513   1.436       .  S
C1271      H1272   1.083       .  S
C1273      H1283   1.082       .  S
C1273      N1274   1.359   1_556  A
N1274      C3325   1.435       .  S
C1275      H1281   1.082       .  S
C1276      H1278   1.082       .  S
N1277      C1279   1.358       .  A
N1277      C1370   1.435       .  S
C1279      H1280   1.083       .  S
C1284      C1286   1.525       .  S
C1284      C1288   1.543       .  S
C1284      C1287   1.549       .  S
C1284      C1672   1.543       .  S
C1285      C1289   1.537       .  S
C1285      C1291   1.553       .  S
C1285      C1290   1.544       .  S
C1285      C1660   1.549       .  S
C1286      C1294   1.376       .  A
C1286      C1289   1.386       .  A
C1287      C1298   1.380       .  A
C1287      C1290   1.399       .  A
C1288      C1302   1.384       .  A
C1288      C1291   1.416       .  A
C1289      C1292   1.382       .  A
C1290      C1296   1.380       .  A
C1291      C1299   1.387       .  A
C1292      H1305   1.082       .  S
C1292      N1293   1.360       .  A
N1293      C1294   1.355       .  A
N1293      C1394   1.433       .  S
C1294      H1295   1.083       .  S
C1296      H1306   1.081       .  S
C1296      N1297   1.358       .  A
N1297      C1298   1.357       .  A
N1297      C3316   1.437       .  S
C1298      H1304   1.082       .  S
C1299      H1301   1.083       .  S
C1299      N1300   1.352       .  A
N1300      C1302   1.349       .  A
N1300      C1531   1.434       .  S
C1302      H1303   1.082       .  S
C1307      C1309   1.542       .  S
C1307      C1311   1.537       .  S
C1307      C1310   1.546       .  S
C1307      C1609   1.544       .  S
C1308      C1312   1.533       .  S
C1308      C1314   1.538       .  S
C1308      C1313   1.544       .  S
C1308      C1621   1.544       .  S
C1309      C1317   1.385       .  A
C1310      C1321   1.380       .  A
C1311      C1325   1.385       .  A
C1312      C1315   1.382       .  A
C1313      C1319   1.377       .  A
C1314      C1322   1.381       .  A
C1315      H1328   1.082       .  S
C1315      N1316   1.349       .  A
N1316      C1375   1.430       .  S
C1317      H1318   1.083       .  S
C1319      H1329   1.082       .  S
C1319      N1320   1.354       .  A
C1321      H1327   1.081       .  S
C1322      H1324   1.083       .  S
C1322      N1323   1.350       .  A
N1323      C1512   1.430       .  S
C1325      H1326   1.082       .  S
C1330      C1332   1.545       .  S
C1330      C1334   1.549       .  S
C1330      C1333   1.536       .  S
C1330      C1624   1.548       .  S
C1331      C1335   1.539       .  S
C1331      C1337   1.538       .  S
C1331      C1336   1.541       .  S
C1331      C1612   1.546       .  S
C1332      C1340   1.383       .  A
C1332      C1335   1.403       .  A
C1333      C1344   1.377       .  A
C1333      C1336   1.395       .  A
C1334      C1348   1.388       .  A
C1334      C1337   1.405       .  A
C1335      C1338   1.381       .  A
C1336      C1342   1.374       .  A
C1337      C1345   1.378       .  A
C1338      H1351   1.083       .  S
C1338      N1339   1.352       .  A
N1339      C1340   1.353       .  A
N1339      C1393   1.430       .  S
C1340      H1341   1.082       .  S
C1342      H1352   1.082       .  S
C1342      N1343   1.354       .  A
N1343      C1344   1.354       .  A
C1344      H1350   1.082       .  S
C1345      H1347   1.083       .  S
C1345      N1346   1.351       .  A
N1346      C1348   1.355       .  A
N1346      C1532   1.433       .  S
C1348      H1349   1.083       .  S
Zn1353     O1358   2.040       .  S
Zn1353     O3042   1.997       .  S
Zn1353     O1369   2.040       .  S
Zn1353     O3037   1.964       .  S
Zn1354     O1359   2.038       .  S
Zn1354     O1361   2.031   1_455  S
Zn1354     O1365   1.988       .  S
Zn1355     O1360   1.979       .  S
Zn1355     O1363   2.015       .  S
Zn1355     O1357   1.946       .  S
Zn1356     O1364   2.020       .  S
Zn1356     O3048   2.001   1_455  S
O1357     Zn3033   1.964   1_455  S
O1358      C1370   1.276       .  A
O1360      C1372   1.271       .  A
O1361      C2630   1.275   1_556  A
O1362     Zn3033   1.997       .  S
O1362      C1372   1.271   1_655  A
O1363      C1371   1.274       .  A
O1365      C1374   1.270       .  A
O1366      C1373   1.273       .  A
O1367      C1374   1.268       .  A
O1368     Zn3036   2.001       .  S
C1370      O2621   1.275       .  A
C1372      C1397   1.452       .  S
C1374      C1395   1.445       .  S
Zn1376     O3061   2.001   1_455  S
Zn1376     O1392   2.015       .  S
Zn1377     O1382   2.040       .  S
Zn1377     O1384   2.035       .  S
Zn1377     O3068   1.999       .  S
Zn1377     O3060   1.960       .  S
Zn1378     O1383   1.984       .  S
Zn1378     O1386   2.019   1_455  S
Zn1378     O1389   2.027       .  S
Zn1378     O1380   1.965       .  S
Zn1379     O1387   2.014       .  S
Zn1379     O1390   1.978       .  S
Zn1379     O1380   1.947       .  S
O1380     Zn3057   1.960   1_455  S
O1381     Zn3056   2.001       .  S
O1381      C1393   1.270       .  A
O1382      C1394   1.277       .  A
O1383      C1395   1.269       .  A
O1385      C1395   1.268       .  A
O1386      C3074   1.273       .  A
O1387      C1396   1.274       .  A
O1388     Zn3057   1.999       .  S
O1388      C1397   1.271   1_655  A
O1389      C1396   1.274       .  A
O1390      C1397   1.270       .  A
O1391      C1398   1.274       .  A
O1392      C1398   1.271       .  A
C1394      O3066   1.273       .  A
C1396      N1484   1.431       .  S
C1398      N1438   1.435       .  S
C1399      C1401   1.548       .  S
C1399      C1403   1.539       .  S
C1399      C1402   1.542       .  S
C1399      C1561   1.545       .  S
C1400      C1404   1.543       .  S
C1400      C1406   1.538       .  S
C1400      C1405   1.550       .  S
C1400      C1573   1.544       .  S
C1401      C1409   1.387       .  A
C1402      C1413   1.380       .  A
C1403      C1417   1.383       .  A
C1404      C1407   1.383       .  A
C1405      C1411   1.381       .  A
C1406      C1414   1.382       .  A
C1407      H1420   1.083       .  S
N1408      C1409   1.354       .  A
C1409      H1410   1.083       .  S
C1411      H1421   1.082       .  S
N1412      C1413   1.355   1_554  A
C1413      H1419   1.082       .  S
C1414      H1416   1.082       .  S
N1415      C1417   1.358   1_554  A
C1417      H1418   1.082       .  S
C1422      C1424   1.543       .  S
C1422      C1426   1.539       .  S
C1422      C1425   1.547       .  S
C1422      C1564   1.543       .  S
C1423      C1427   1.552       .  S
C1423      C1429   1.538       .  S
C1423      C1428   1.547       .  S
C1423      C1576   1.544       .  S
C1424      C1432   1.383       .  A
C1424      C1427   1.403       .  A
C1425      C1436   1.384       .  A
C1425      C1428   1.398       .  A
C1426      C1440   1.382       .  A
C1426      C1429   1.390       .  A
C1427      C1430   1.389       .  A
C1428      C1434   1.380       .  A
C1429      C1437   1.382       .  A
C1430      H1443   1.082       .  S
C1430      N1431   1.357       .  A
N1431      C1432   1.356       .  A
N1431      C1534   1.439       .  S
C1432      H1433   1.083       .  S
C1434      H1444   1.082       .  S
C1434      N1435   1.356       .  A
N1435      C1436   1.357       .  A
N1435      C1633   1.438       .  S
C1436      H1442   1.081       .  S
C1437      H1439   1.083       .  S
C1437      N1438   1.357       .  A
N1438      C1440   1.358       .  A
C1440      H1441   1.082       .  S
C1445      C1447   1.554       .  S
C1445      C1449   1.545       .  S
C1445      C1448   1.532       .  S
C1445      C1549   1.545       .  S
C1446      C1450   1.543       .  S
C1446      C1452   1.554       .  S
C1446      C1451   1.530       .  S
C1446      C1537   1.544       .  S
C1447      C1455   1.387       .  A
C1448      C1459   1.378       .  A
C1449      C1463   1.377       .  A
C1450      C1453   1.377       .  A
C1451      C1457   1.376       .  A
C1452      C1460   1.387       .  A
C1453      H1466   1.081       .  S
C1453      N1454   1.354   1_556  A
C1455      H1456   1.081       .  S
C1457      H1467   1.083       .  S
C1457      N1458   1.355       .  A
N1458      C1597   1.432       .  S
C1459      H1465   1.082       .  S
C1460      H1462   1.081       .  S
C1460      N1461   1.357   1_556  A
C1463      H1464   1.081       .  S
C1468      C1470   1.551       .  S
C1468      C1472   1.546       .  S
C1468      C1471   1.531       .  S
C1468      C1540   1.543       .  S
C1469      C1473   1.549       .  S
C1469      C1475   1.550       .  S
C1469      C1474   1.523       .  S
C1469      C1552   1.546       .  S
C1470      C1478   1.386       .  A
C1470      C1473   1.403       .  A
C1471      C1482   1.377       .  A
C1471      C1474   1.385       .  A
C1472      C1486   1.380       .  A
C1472      C1475   1.403       .  A
C1473      C1476   1.378       .  A
C1474      C1480   1.372       .  A
C1475      C1483   1.381       .  A
C1476      H1489   1.081       .  S
C1476      N1477   1.356       .  A
N1477      C1478   1.357       .  A
N1477      C1536   1.434       .  S
C1478      H1479   1.081       .  S
C1480      H1490   1.083       .  S
C1480      N1481   1.354       .  A
N1481      C1482   1.356       .  A
N1481      C1588   1.428       .  S
C1482      H1488   1.082       .  S
C1483      H1485   1.081       .  S
C1483      N1484   1.355       .  A
N1484      C1486   1.355       .  A
C1486      H1487   1.081       .  S
Zn1491     O1496   1.980       .  S
Zn1491     O1500   2.011       .  S
Zn1491     O1507   2.032       .  S
Zn1492     O1497   2.040       .  S
Zn1492     O1499   1.990       .  S
Zn1492     O1503   2.041       .  S
Zn1493     O1498   2.038       .  S
Zn1493     O1501   2.030       .  S
Zn1493     O1504   1.997       .  S
Zn1493     O1495   1.965       .  S
Zn1494     O1502   1.975       .  S
Zn1494     O1505   2.001       .  S
Zn1494     O1506   2.030       .  S
Zn1494     O1495   1.954       .  S
O1496      C1508   1.268       .  A
O1498      C1510   1.274       .  A
O1499      C1508   1.269       .  A
O1501      C1509   1.275       .  A
O1502      C1511   1.268       .  A
O1504      C1511   1.270       .  A
O1505      C1512   1.271       .  A
O1506      C1513   1.273       .  A
C1508      C1535   1.440       .  S
C1511      C1533   1.440       .  S
Zn1514     O1519   2.028       .  S
Zn1514     O1523   1.973       .  S
Zn1514     O1530   2.006       .  S
Zn1514     O1518   1.947       .  S
Zn1515     O1520   2.008       .  S
Zn1515     O1522   2.015       .  S
Zn1515     O1526   1.975       .  S
Zn1515     O1518   1.957       .  S
Zn1516     O1521   1.996       .  S
Zn1516     O1524   2.043       .  S
Zn1516     O1527   2.048       .  S
Zn1516     O1518   1.964       .  S
Zn1517     O1525   2.037       .  S
Zn1517     O1528   1.997       .  S
Zn1517     O1529   2.050       .  S
Zn1517     O1518   1.969       .  S
O1519      C1531   1.273       .  A
O1520      C1532   1.272       .  A
O1521      C1533   1.270       .  A
O1522      C1531   1.271       .  A
O1523      C1533   1.267       .  A
O1524      C1532   1.276       .  A
O1525      C1534   1.276       .  A
O1526      C1535   1.268       .  A
O1527      C1534   1.278       .  A
O1528      C1535   1.271       .  A
O1529      C1536   1.276       .  A
O1530      C1536   1.272       .  A
C1537      C1538   1.407       .  A
C1537      C1542   1.426       .  A
C1538      C1539   1.403       .  A
C1538      H1547   1.081       .  S
C1539      C1540   1.426       .  A
C1539      S1543   1.810       .  S
C1540      C1541   1.408       .  A
C1541      C1542   1.403       .  A
C1541      H1548   1.081       .  S
C1542      S1544   1.810       .  S
S1543      H1546   1.398       .  S
S1544      H1545   1.398       .  S
C1549      C1550   1.407       .  A
C1549      C1554   1.425       .  A
C1550      C1551   1.403       .  A
C1550      H1559   1.081       .  S
C1551      C1552   1.425       .  A
C1551      S1555   1.809       .  S
C1552      C1553   1.409       .  A
C1553      C1554   1.404       .  A
C1553      H1560   1.080       .  S
C1554      S1556   1.811       .  S
S1555      H1558   1.398       .  S
S1556      H1557   1.397       .  S
C1561      C1562   1.409       .  A
C1561      C1566   1.428       .  A
C1562      C1563   1.400       .  A
C1562      H1571   1.082       .  S
C1563      C1564   1.422       .  A
C1563      S1567   1.806       .  S
C1564      C1565   1.407       .  A
C1565      C1566   1.406       .  A
C1565      H1572   1.080       .  S
C1566      S1568   1.811       .  S
S1567      H1570   1.401       .  S
S1568      H1569   1.395       .  S
C1573      C1574   1.406       .  A
C1573      C1578   1.422       .  A
C1574      C1575   1.402       .  A
C1574      H1583   1.080       .  S
C1575      C1576   1.429       .  A
C1575      S1579   1.815       .  S
C1576      C1577   1.409       .  A
C1577      C1578   1.403       .  A
C1577      H1584   1.080       .  S
C1578      S1580   1.806       .  S
S1579      H1582   1.393       .  S
S1580      H1581   1.401       .  S
C1585      C1586   1.401       .  A
C1585      C1590   1.409       .  A
C1586      C1587   1.397       .  A
C1587      C1588   1.410       .  A
C1587      S1591   1.803       .  S
C1588      C1589   1.400       .  A
C1589      C1590   1.400       .  A
C1589      H1596   1.082       .  S
C1590      S1592   1.806       .  S
S1591      H1594   1.407       .  S
C1597      C1598   1.402       .  A
C1598      C1599   1.399       .  A
C1598      H1607   1.083       .  S
C1599      S1603   1.802       .  S
C1600      C1601   1.402       .  A
C1601      C1602   1.399       .  A
C1602      S1604   1.803       .  S
S1604      H1605   1.406       .  S
C1609      C1610   1.405       .  A
C1609      C1614   1.421       .  A
C1610      C1611   1.403       .  A
C1610      H1619   1.082       .  S
C1611      C1612   1.430       .  A
C1611      S1615   1.812       .  S
C1612      C1613   1.410       .  A
C1613      C1614   1.403       .  A
C1613      H1620   1.082       .  S
C1614      S1616   1.805       .  S
S1615      H1618   1.394       .  S
S1616      H1617   1.406       .  S
C1621      C1622   1.406       .  A
C1621      C1626   1.419       .  A
C1622      C1623   1.403       .  A
C1622      H1631   1.082       .  S
C1623      C1624   1.430       .  A
C1623      S1627   1.813       .  S
C1624      C1625   1.413       .  A
C1625      C1626   1.402       .  A
C1625      H1632   1.082       .  S
C1626      S1628   1.806       .  S
S1627      H1630   1.392       .  S
S1628      H1629   1.405       .  S
C1633      C1634   1.406       .  A
C1633      C1638   1.411       .  A
C1634      C1635   1.404   1_455  A
C1634      H1643   1.083       .  S
C1635      C1636   1.411       .  A
C1635      S3319   1.802       .  S
C1636      C1637   1.403   1_655  A
C1636      N2977   1.437       .  S
C1637      C1638   1.398       .  A
C1637      H1644   1.083       .  S
C1638      S1640   1.802       .  S
S1639      C3315   1.802       .  S
S1639      H1642   1.406       .  S
S1640      H1641   1.406       .  S
C1645      C1650   1.411   1_554  A
C1645      N2954   1.435       .  S
C1646      C1647   1.396       .  A
C1646      H1655   1.084       .  S
C1647      C1648   1.412       .  A
C1647      S1651   1.802       .  S
C1649      C1650   1.404   1_455  A
C1649      H1656   1.083   1_455  S
C1650      S3332   1.802       .  S
S1651      H1654   1.407       .  S
S1652      C3330   1.802       .  S
S1652      H1653   1.406       .  S
C1657      C1658   1.410       .  A
C1657      C1662   1.422       .  A
C1658      C1659   1.414       .  A
C1658      H1667   1.081       .  S
C1659      C1660   1.422       .  A
C1659      S1663   1.808       .  S
C1660      C1661   1.409       .  A
C1661      C1662   1.400       .  A
C1661      H1668   1.082       .  S
C1662      S1664   1.806       .  S
S1663      H1666   1.406       .  S
S1664      H1665   1.404       .  S
C1669      C1670   1.410       .  A
C1669      C1674   1.427       .  A
C1670      C1671   1.402       .  A
C1670      H1679   1.082       .  S
C1671      C1672   1.420       .  A
C1671      S1675   1.804       .  S
C1672      C1673   1.406       .  A
C1673      C1674   1.403       .  A
C1673      H1680   1.083       .  S
C1674      S1676   1.810       .  S
S1675      H1678   1.406       .  S
S1676      H1677   1.396       .  S
C1681      C1683   1.549       .  S
C1681      C1685   1.536       .  S
C1681      C1684   1.540       .  S
C1681      C2089   1.544       .  S
C1682      C1686   1.550       .  S
C1682      C1688   1.532       .  S
C1682      C1687   1.549       .  S
C1682      C2077   1.547       .  S
C1683      C1691   1.389       .  A
C1683      C2106   1.413   1_554  A
C1684      C1695   1.375       .  A
C1684      C2107   1.400   1_554  A
C1685      C1699   1.382       .  A
C1685      C2108   1.386   1_554  A
C1686      C2103   1.413       .  A
C1686      C1689   1.386       .  A
C1687      C2104   1.400       .  A
C1687      C1693   1.383       .  A
C1688      C2105   1.386       .  A
C1688      C1696   1.380       .  A
C1689      H1702   1.082       .  S
C1689      N2110   1.351       .  A
N1690      C2109   1.351   1_554  A
N1690      C1691   1.353       .  A
N1690      C1933   1.436       .  S
C1691      H1692   1.083       .  S
C1693      H1703   1.082       .  S
C1693      N1694   1.359       .  A
N1694      C2115   1.354       .  A
C1695      H1701   1.082       .  S
C1695      N2114   1.354       .  A
C1696      H1698   1.082       .  S
C1696      N2117   1.358       .  A
N1697      C2116   1.358   1_554  A
N1697      C1699   1.358       .  A
N1697      C1790   1.435       .  S
C1699      H1700   1.083       .  S
C1704      C1706   1.525       .  S
C1704      C1708   1.543       .  S
C1704      C1707   1.549       .  S
C1704      C2092   1.543       .  S
C1705      C1709   1.537       .  S
C1705      C1711   1.553       .  S
C1705      C1710   1.544       .  S
C1705      C2080   1.549       .  S
C1706      C1714   1.376       .  A
C1706      C1709   1.386       .  A
C1707      C1718   1.380       .  A
C1707      C1710   1.399       .  A
C1708      C1722   1.384       .  A
C1708      C1711   1.416       .  A
C1709      C1712   1.382       .  A
C1710      C1716   1.380       .  A
C1711      C1719   1.387       .  A
C1712      H1725   1.082       .  S
C1712      N1713   1.360       .  A
N1713      C1714   1.355       .  A
N1713      C1814   1.433       .  S
C1714      H1715   1.083       .  S
C1716      H1726   1.081       .  S
C1716      N1717   1.358       .  A
N1717      C1718   1.357       .  A
C1718      H1724   1.082       .  S
C1719      H1721   1.083       .  S
C1719      N1720   1.352       .  A
N1720      C1722   1.349       .  A
N1720      C1951   1.434       .  S
C1722      H1723   1.082       .  S
C1727      C1729   1.542       .  S
C1727      C1731   1.537       .  S
C1727      C1730   1.546       .  S
C1727      C2029   1.544       .  S
C1728      C1732   1.533       .  S
C1728      C1734   1.538       .  S
C1728      C1733   1.544       .  S
C1728      C2041   1.544       .  S
C1729      C1737   1.385       .  A
C1729      C2152   1.406       .  A
C1730      C1741   1.380       .  A
C1730      C2153   1.398       .  A
C1731      C1745   1.385       .  A
C1731      C2154   1.404       .  A
C1732      C2149   1.406   1_554  A
C1732      C1735   1.382       .  A
C1733      C2150   1.398   1_554  A
C1733      C1739   1.377       .  A
C1734      C2151   1.404   1_554  A
C1734      C1742   1.381       .  A
C1735      H1748   1.082       .  S
C1735      N1736   1.349   1_554  A
N1736      C2157   1.351       .  A
N1736      C1795   1.430       .  S
C1737      H1738   1.083       .  S
C1737      N2156   1.351       .  A
C1739      H1749   1.082       .  S
C1739      N1740   1.354   1_554  A
N1740      C2161   1.357       .  A
N1740      C2860   1.433       .  S
C1741      H1747   1.081       .  S
C1741      N2160   1.357       .  A
C1742      H1744   1.083       .  S
C1742      N1743   1.350   1_554  A
N1743      C2165   1.352       .  A
N1743      C1932   1.430       .  S
C1745      H1746   1.082       .  S
C1745      N2163   1.352       .  A
C1750      C1752   1.545       .  S
C1750      C1754   1.549       .  S
C1750      C1753   1.536       .  S
C1750      C2044   1.548       .  S
C1751      C1755   1.539       .  S
C1751      C1757   1.538       .  S
C1751      C1756   1.541       .  S
C1751      C2032   1.546       .  S
C1752      C1760   1.383       .  A
C1752      C1755   1.403       .  A
C1753      C1764   1.377       .  A
C1753      C1756   1.395       .  A
C1754      C1768   1.388       .  A
C1754      C1757   1.405       .  A
C1755      C1758   1.381       .  A
C1756      C1762   1.374       .  A
C1757      C1765   1.378       .  A
C1758      H1771   1.083       .  S
C1758      N1759   1.352       .  A
N1759      C1760   1.353       .  A
N1759      C1813   1.430       .  S
C1760      H1761   1.082       .  S
C1762      H1772   1.082       .  S
C1762      N1763   1.354       .  A
N1763      C1764   1.354       .  A
N1763      C2845   1.430       .  S
C1764      H1770   1.082       .  S
C1765      H1767   1.083       .  S
C1765      N1766   1.351       .  A
N1766      C1768   1.355       .  A
N1766      C1952   1.433       .  S
C1768      H1769   1.083       .  S
Zn1773     O1778   2.040       .  S
Zn1773     O1789   2.040       .  S
Zn1774     O1779   2.038       .  S
Zn1774     O1781   2.031       .  S
Zn1774     O1785   1.988       .  S
Zn1774     O2197   1.967       .  S
Zn1775     O1780   1.979       .  S
Zn1775     O1783   2.015       .  S
Zn1775     O2626   2.033   1_545  S
Zn1775     O1777   1.946   1_554  S
Zn1776     O1784   2.020       .  S
Zn1776     O2627   1.957       .  S
Zn1776     O3037   1.948       .  S
O1777     Zn2194   1.967       .  S
O1777     Zn3036   1.948   1_545  S
O1778      C1790   1.276       .  A
O1779      C2211   1.274       .  A
O1780      C1792   1.271       .  A
O1782      C1792   1.271       .  A
O1783      C1791   1.274       .  A
O1784      C2213   1.272       .  A
O1785      C1794   1.270       .  A
O1786     Zn2615   2.033       .  S
O1786      C1793   1.273   1_554  A
O1787     Zn2616   1.957   1_545  S
O1787      C1794   1.268       .  A
O1788      C2215   1.270       .  A
O1789      C2635   1.276   1_544  A
C1791      N2301   1.434       .  S
C1791      O2199   1.274   1_554  A
C1792      C1817   1.452       .  S
C1793      N2248   1.436       .  S
C1793      O2204   1.272       .  A
C1794      C1815   1.445       .  S
C1795      O2208   1.270       .  A
C1795      O2629   1.276   1_556  A
Zn1796     O2645   1.962       .  S
Zn1796     O1812   2.015       .  S
Zn1796     O2640   1.946       .  S
Zn1797     O1802   2.040       .  S
Zn1797     O1804   2.035       .  S
Zn1798     O1803   1.984       .  S
Zn1798     O1806   2.019       .  S
Zn1798     O1809   2.027       .  S
Zn1798     O1800   1.965       .  S
Zn1799     O1807   2.014       .  S
Zn1799     O1810   1.978       .  S
Zn1799     O2651   2.035   1_545  S
Zn1799     O1800   1.947       .  S
O1800     Zn2636   1.946   1_545  S
O1801      C1813   1.270       .  A
O1802      C1814   1.277       .  A
O1803      C1815   1.269       .  A
O1804      C2653   1.275   1_545  A
O1805     Zn2636   1.962   1_545  S
O1805      C1815   1.268       .  A
O1807      C1816   1.274       .  A
O1808      C1817   1.271       .  A
O1809      C1816   1.274       .  A
O1810      C1817   1.270       .  A
O1811     Zn2639   2.035       .  S
O1811      C1818   1.274       .  A
O1812      C1818   1.271       .  A
C1813      O2644   1.275       .  A
C1816      N1904   1.431       .  S
C1818      N1858   1.435       .  S
C1819      C1821   1.548       .  S
C1819      C1823   1.539       .  S
C1819      C1822   1.542       .  S
C1819      C1981   1.545       .  S
C1820      C1824   1.543       .  S
C1820      C1826   1.538       .  S
C1820      C1825   1.550       .  S
C1820      C1993   1.544       .  S
C1821      C1829   1.387       .  A
C1821      C2244   1.410       .  A
C1822      C1833   1.380       .  A
C1822      C2245   1.398       .  A
C1823      C1837   1.383       .  A
C1823      C2246   1.389       .  A
C1824      C2241   1.410   1_554  A
C1824      C1827   1.383       .  A
C1825      C2242   1.398   1_554  A
C1825      C1831   1.381       .  A
C1826      C2243   1.389   1_554  A
C1826      C1834   1.382       .  A
C1827      H1840   1.083       .  S
C1827      N2248   1.352   1_554  A
N1828      C2247   1.352       .  A
N1828      C1829   1.354       .  A
N1828      C2213   1.436       .  S
C1829      H1830   1.083       .  S
C1831      H1841   1.082       .  S
C1831      N2252   1.357       .  A
N1832      C2251   1.357       .  A
N1832      C1833   1.355       .  A
N1832      C2488   1.436       .  S
C1833      H1839   1.082       .  S
C1834      H1836   1.082       .  S
C1834      N2255   1.357       .  A
N1835      C2254   1.357       .  A
N1835      C1837   1.358       .  A
N1835      C2349   1.436       .  S
C1837      H1838   1.082       .  S
C1842      C1844   1.542       .  S
C1842      C1846   1.539       .  S
C1842      C1845   1.547       .  S
C1842      C1984   1.543       .  S
C1843      C1847   1.552       .  S
C1843      C1849   1.538       .  S
C1843      C1848   1.547       .  S
C1843      C1996   1.544       .  S
C1844      C1852   1.383       .  A
C1844      C1847   1.403       .  A
C1845      C1856   1.384       .  A
C1845      C1848   1.398       .  A
C1846      C1860   1.382       .  A
C1846      C1849   1.390       .  A
C1847      C1850   1.389       .  A
C1848      C1854   1.380       .  A
C1849      C1857   1.382       .  A
C1850      H1863   1.082       .  S
C1850      N1851   1.357       .  A
N1851      C1852   1.356       .  A
N1851      C1954   1.439       .  S
C1852      H1853   1.083       .  S
C1854      H1864   1.082       .  S
C1854      N1855   1.356       .  A
N1855      C1856   1.357       .  A
N1855      C2053   1.438       .  S
C1856      H1862   1.081       .  S
C1857      H1859   1.083       .  S
C1857      N1858   1.357       .  A
N1858      C1860   1.358       .  A
C1860      H1861   1.082       .  S
C1865      C1867   1.554       .  S
C1865      C1869   1.545       .  S
C1865      C1868   1.532       .  S
C1865      C1969   1.545       .  S
C1866      C1870   1.543       .  S
C1866      C1872   1.554       .  S
C1866      C1871   1.530       .  S
C1866      C1957   1.544       .  S
C1867      C1875   1.387       .  A
C1867      C2290   1.401   1_554  A
C1868      C1879   1.378       .  A
C1868      C2291   1.388   1_554  A
C1869      C1883   1.378       .  A
C1869      C2292   1.402   1_554  A
C1870      C2287   1.401       .  A
C1870      C1873   1.377       .  A
C1871      C2288   1.388       .  A
C1871      C1877   1.376       .  A
C1872      C2289   1.402       .  A
C1872      C1880   1.387       .  A
C1873      H1886   1.081       .  S
C1873      N1874   1.354       .  A
N1874      C2295   1.356       .  A
N1874      C2350   1.432       .  S
C1875      H1876   1.081       .  S
C1875      N2294   1.356       .  A
C1877      H1887   1.083       .  S
C1877      N1878   1.355       .  A
N1878      C2299   1.358       .  A
N1878      C2017   1.432       .  S
C1879      H1885   1.082       .  S
C1879      N2298   1.358   1_554  A
C1880      H1882   1.081       .  S
C1880      N1881   1.357       .  A
N1881      C2303   1.354       .  A
N1881      C2211   1.434       .  S
C1883      H1884   1.081       .  S
C1883      N2301   1.354       .  A
C1888      C1890   1.551       .  S
C1888      C1892   1.546       .  S
C1888      C1891   1.531       .  S
C1888      C1960   1.543       .  S
C1889      C1893   1.549       .  S
C1889      C1895   1.550       .  S
C1889      C1894   1.523       .  S
C1889      C1972   1.546       .  S
C1890      C1898   1.386       .  A
C1890      C1893   1.403       .  A
C1891      C1902   1.377       .  A
C1891      C1894   1.385       .  A
C1892      C1906   1.380       .  A
C1892      C1895   1.403       .  A
C1893      C1896   1.378       .  A
C1894      C1900   1.372       .  A
C1895      C1903   1.381       .  A
C1896      H1909   1.081       .  S
C1896      N1897   1.356       .  A
N1897      C1898   1.357       .  A
N1897      C1956   1.434       .  S
C1898      H1899   1.081       .  S
C1900      H1910   1.083       .  S
C1900      N1901   1.354       .  A
N1901      C1902   1.356       .  A
N1901      C2008   1.428       .  S
C1902      H1908   1.082       .  S
C1903      H1905   1.081       .  S
C1903      N1904   1.355       .  A
N1904      C1906   1.355       .  A
C1906      H1907   1.081       .  S
Zn1911     O1916   1.980       .  S
Zn1911     O1920   2.011       .  S
Zn1911     O1927   2.032       .  S
Zn1911     O2335   1.947       .  S
Zn1912     O1917   2.040       .  S
Zn1912     O1919   1.990       .  S
Zn1912     O1923   2.041       .  S
Zn1912     O2335   1.966       .  S
Zn1913     O1918   2.038       .  S
Zn1913     O1921   2.030       .  S
Zn1913     O1924   1.997       .  S
Zn1913     O1915   1.965       .  S
Zn1914     O1922   1.975       .  S
Zn1914     O1925   2.001       .  S
Zn1914     O1926   2.030       .  S
Zn1914     O1915   1.954       .  S
O1915     Zn2331   1.947   1_554  S
O1915     Zn2332   1.966   1_554  S
O1916      C1928   1.268       .  A
O1917      C2349   1.276       .  A
O1918      C1930   1.274       .  A
O1919      C1928   1.269       .  A
O1920      C2350   1.274       .  A
O1921      C1929   1.275       .  A
O1922      C1931   1.268       .  A
O1923      C2352   1.276       .  A
O1924      C1931   1.270       .  A
O1925      C1932   1.271   1_554  A
O1926      C1933   1.273       .  A
O1927      C2353   1.274       .  A
C1928      C1955   1.440       .  S
C1929      N2255   1.436       .  S
C1929      O2337   1.276   1_554  A
C1930      N2294   1.432       .  S
C1930      O2340   1.274   1_554  A
C1931      C1953   1.440       .  S
C1932      O2343   1.276       .  A
C1933      O2347   1.274   1_554  A
Zn1934     O1939   2.028       .  S
Zn1934     O1943   1.973       .  S
Zn1934     O1950   2.006       .  S
Zn1934     O1938   1.947       .  S
Zn1935     O1940   2.008       .  S
Zn1935     O1942   2.015       .  S
Zn1935     O1946   1.975       .  S
Zn1935     O1938   1.957       .  S
Zn1936     O1941   1.996       .  S
Zn1936     O1944   2.043       .  S
Zn1936     O1947   2.048       .  S
Zn1936     O1938   1.964       .  S
Zn1937     O1945   2.037       .  S
Zn1937     O1948   1.997       .  S
Zn1937     O1949   2.050       .  S
Zn1937     O1938   1.969       .  S
O1939      C1951   1.273       .  A
O1940      C1952   1.272       .  A
O1941      C1953   1.270       .  A
O1942      C1951   1.271       .  A
O1943      C1953   1.267       .  A
O1944      C1952   1.276       .  A
O1945      C1954   1.276       .  A
O1946      C1955   1.268       .  A
O1947      C1954   1.278       .  A
O1948      C1955   1.271       .  A
O1949      C1956   1.276       .  A
O1950      C1956   1.272       .  A
C1957      C1958   1.407       .  A
C1957      C1962   1.426       .  A
C1958      C1959   1.403       .  A
C1958      H1967   1.081       .  S
C1959      C1960   1.426       .  A
C1959      S1963   1.810       .  S
C1960      C1961   1.408       .  A
C1961      C1962   1.403       .  A
C1961      H1968   1.081       .  S
C1962      S1964   1.810       .  S
S1963      H1966   1.398       .  S
S1964      H1965   1.398       .  S
C1969      C1970   1.407       .  A
C1969      C1974   1.425       .  A
C1970      C1971   1.403       .  A
C1970      H1979   1.081       .  S
C1971      C1972   1.425       .  A
C1971      S1975   1.809       .  S
C1972      C1973   1.409       .  A
C1973      C1974   1.404       .  A
C1973      H1980   1.080       .  S
C1974      S1976   1.811       .  S
S1975      H1978   1.398       .  S
S1976      H1977   1.397       .  S
C1981      C1982   1.409       .  A
C1981      C1986   1.428       .  A
C1982      C1983   1.400       .  A
C1982      H1991   1.082       .  S
C1983      C1984   1.422       .  A
C1983      S1987   1.806       .  S
C1984      C1985   1.407       .  A
C1985      C1986   1.406       .  A
C1985      H1992   1.080       .  S
C1986      S1988   1.811       .  S
S1987      H1990   1.401       .  S
S1988      H1989   1.395       .  S
C1993      C1994   1.406       .  A
C1993      C1998   1.422       .  A
C1994      C1995   1.402       .  A
C1994      H2003   1.080       .  S
C1995      C1996   1.429       .  A
C1995      S1999   1.815       .  S
C1996      C1997   1.409       .  A
C1997      C1998   1.403       .  A
C1997      H2004   1.080       .  S
C1998      S2000   1.806       .  S
S1999      H2002   1.393       .  S
S2000      H2001   1.401       .  S
C2005      C2006   1.401       .  A
C2005      C2010   1.409   1_565  A
C2005      N2603   1.430       .  S
C2006      C2007   1.397   1_565  A
C2006      H2855   1.083       .  S
C2007      C2008   1.410       .  A
C2007      S2011   1.803       .  S
C2008      C2009   1.400       .  A
C2009      C2010   1.400       .  A
C2009      H2016   1.082       .  S
C2010      S2012   1.806       .  S
S2011      H2014   1.407       .  S
S2012      H2853   1.407       .  S
H2013      S2852   1.407       .  S
H2015      C2846   1.083       .  S
C2017      C2018   1.402       .  A
C2017      C2442   1.411       .  A
C2018      C2019   1.399       .  A
C2018      H2027   1.083       .  S
C2019      C2440   1.411   1_545  A
C2019      S2023   1.802       .  S
C2020      C2439   1.411   1_565  A
C2020      C2021   1.402   1_556  A
C2020      N2580   1.433       .  S
C2021      C2022   1.399   1_565  A
C2021      H2868   1.083       .  S
C2022      C2437   1.411   1_554  A
C2022      S2024   1.803   1_545  S
S2023      H2866   1.407       .  S
S2024      H2025   1.406   1_565  S
H2026      S2863   1.407       .  S
H2028      C2861   1.083       .  S
C2029      C2030   1.405       .  A
C2029      C2034   1.421       .  A
C2030      C2031   1.403       .  A
C2030      H2039   1.082       .  S
C2031      C2032   1.430       .  A
C2031      S2035   1.812       .  S
C2032      C2033   1.410       .  A
C2033      C2034   1.403       .  A
C2033      H2040   1.082       .  S
C2034      S2036   1.805       .  S
S2035      H2038   1.394       .  S
S2036      H2037   1.406       .  S
C2041      C2042   1.406       .  A
C2041      C2046   1.419       .  A
C2042      C2043   1.403       .  A
C2042      H2051   1.082       .  S
C2043      C2044   1.430       .  A
C2043      S2047   1.813       .  S
C2044      C2045   1.413       .  A
C2045      C2046   1.402       .  A
C2045      H2052   1.082       .  S
C2046      S2048   1.806       .  S
S2047      H2050   1.392       .  S
S2048      H2049   1.405       .  S
C2053      C2054   1.406       .  A
C2053      C2058   1.411       .  A
C2054      C2055   1.404       .  A
C2054      H2063   1.083       .  S
C2055      C2056   1.411       .  A
C2056      C2057   1.403       .  A
C2057      C2058   1.398       .  A
C2057      H2064   1.083       .  S
C2058      S2060   1.802       .  S
S2059      H2062   1.406       .  S
S2060      H2061   1.406       .  S
C2065      C2486   1.401       .  A
C2065      C2070   1.411       .  A
C2066      C2485   1.401       .  A
C2066      C2067   1.396       .  A
C2066      H2075   1.084       .  S
C2067      C2068   1.412       .  A
C2067      S2071   1.802       .  S
C2068      C2489   1.404   1_554  A
C2068      N2252   1.436       .  S
C2069      C2488   1.404       .  A
C2069      C2070   1.404       .  A
C2069      H2076   1.083       .  S
S2071      H2074   1.407       .  S
S2072      H2073   1.406       .  S
C2077      C2078   1.410       .  A
C2077      C2082   1.422       .  A
C2078      C2079   1.414       .  A
C2078      H2087   1.081       .  S
C2079      C2080   1.422       .  A
C2079      S2083   1.808       .  S
C2080      C2081   1.409       .  A
C2081      C2082   1.400       .  A
C2081      H2088   1.082       .  S
C2082      S2084   1.806       .  S
S2083      H2086   1.406   1_655  S
S2084      H2085   1.404       .  S
C2089      C2090   1.410       .  A
C2089      C2094   1.427       .  A
C2090      C2091   1.402       .  A
C2090      H2099   1.082       .  S
C2091      C2092   1.420       .  A
C2091      S2095   1.804       .  S
C2092      C2093   1.406       .  A
C2093      C2094   1.403       .  A
C2093      H2100   1.083       .  S
C2094      S2096   1.810       .  S
S2095      H2098   1.406       .  S
S2096      H2097   1.396       .  S
C2101      C2103   1.549       .  S
C2101      C2105   1.536       .  S
C2101      C2104   1.540       .  S
C2101      C2509   1.544       .  S
C2102      C2106   1.550       .  S
C2102      C2108   1.532       .  S
C2102      C2107   1.549       .  S
C2102      C2497   1.547       .  S
C2103      C2111   1.389       .  A
C2104      C2115   1.375       .  A
C2105      C2119   1.382       .  A
C2106      C2109   1.386       .  A
C2107      C2113   1.383       .  A
C2108      C2116   1.380       .  A
C2109      H2122   1.082       .  S
N2110      C2111   1.353       .  A
N2110      C2353   1.436       .  S
C2111      H2112   1.083       .  S
C2113      H2123   1.082       .  S
C2113      N2114   1.359   1_556  A
C2115      H2121   1.082       .  S
C2116      H2118   1.082       .  S
N2117      C2119   1.358       .  A
N2117      C2210   1.435       .  S
C2119      H2120   1.083       .  S
C2124      C2126   1.525       .  S
C2124      C2128   1.543       .  S
C2124      C2127   1.549       .  S
C2124      C2512   1.543       .  S
C2125      C2129   1.537       .  S
C2125      C2131   1.553       .  S
C2125      C2130   1.544       .  S
C2125      C2500   1.549       .  S
C2126      C2134   1.376       .  A
C2126      C2129   1.386       .  A
C2127      C2138   1.380       .  A
C2127      C2130   1.399       .  A
C2128      C2142   1.384       .  A
C2128      C2131   1.416       .  A
C2129      C2132   1.382       .  A
C2130      C2136   1.380       .  A
C2131      C2139   1.387       .  A
C2132      H2145   1.082       .  S
C2132      N2133   1.360       .  A
N2133      C2134   1.355       .  A
N2133      C2234   1.433       .  S
C2134      H2135   1.083       .  S
C2136      H2146   1.081       .  S
C2136      N2137   1.358       .  A
N2137      C2138   1.357       .  A
C2138      H2144   1.082       .  S
C2139      H2141   1.083       .  S
C2139      N2140   1.352       .  A
N2140      C2142   1.349       .  A
N2140      C2371   1.434       .  S
C2142      H2143   1.082       .  S
C2147      C2149   1.542       .  S
C2147      C2151   1.537       .  S
C2147      C2150   1.546       .  S
C2147      C2449   1.544       .  S
C2148      C2152   1.533       .  S
C2148      C2154   1.538       .  S
C2148      C2153   1.544       .  S
C2148      C2461   1.544       .  S
C2149      C2157   1.385       .  A
C2150      C2161   1.380       .  A
C2151      C2165   1.385       .  A
C2152      C2155   1.382       .  A
C2153      C2159   1.377       .  A
C2154      C2162   1.381       .  A
C2155      H2168   1.082       .  S
C2155      N2156   1.349       .  A
N2156      C2215   1.430       .  S
C2157      H2158   1.083       .  S
C2159      H2169   1.082       .  S
C2159      N2160   1.354       .  A
N2160      C3280   1.433       .  S
C2161      H2167   1.081       .  S
C2162      H2164   1.083       .  S
C2162      N2163   1.350       .  A
N2163      C2352   1.430       .  S
C2165      H2166   1.082       .  S
C2170      C2172   1.545       .  S
C2170      C2174   1.548       .  S
C2170      C2173   1.536       .  S
C2170      C2464   1.548       .  S
C2171      C2175   1.539       .  S
C2171      C2177   1.538       .  S
C2171      C2176   1.541       .  S
C2171      C2452   1.546       .  S
C2172      C2180   1.383       .  A
C2172      C2175   1.403       .  A
C2173      C2184   1.377       .  A
C2173      C2176   1.395       .  A
C2174      C2188   1.388       .  A
C2174      C2177   1.405       .  A
C2175      C2178   1.381       .  A
C2176      C2182   1.374       .  A
C2177      C2185   1.378       .  A
C2178      H2191   1.083       .  S
C2178      N2179   1.352       .  A
N2179      C2180   1.353       .  A
N2179      C2233   1.430       .  S
C2180      H2181   1.082       .  S
C2182      H2192   1.082       .  S
C2182      N2183   1.354       .  A
N2183      C2184   1.354       .  A
N2183      C3265   1.430       .  S
C2184      H2190   1.082       .  S
C2185      H2187   1.083       .  S
C2185      N2186   1.351       .  A
N2186      C2188   1.355       .  A
N2186      C2372   1.433       .  S
C2188      H2189   1.083       .  S
Zn2193     O2198   2.040       .  S
Zn2193     O2209   2.040       .  S
Zn2194     O2199   2.038       .  S
Zn2194     O2201   2.031       .  S
Zn2194     O2205   1.988       .  S
Zn2195     O2200   1.979       .  S
Zn2195     O2203   2.015       .  S
Zn2195     O3046   2.034   1_545  S
Zn2195     O2197   1.946       .  S
Zn2196     O2204   2.020       .  S
Zn2196     O3047   1.957       .  S
Zn2196     O2617   1.948       .  S
O2197     Zn2616   1.948   1_545  S
O2198      C2210   1.276       .  A
O2200      C2212   1.271       .  A
O2202      C2212   1.271       .  A
O2203      C2211   1.274       .  A
O2205      C2214   1.270       .  A
O2206     Zn3035   2.033       .  S
O2206      C2213   1.273       .  A
O2207     Zn3036   1.957   1_545  S
O2207      C2214   1.268       .  A
O2209      C3055   1.276   1_545  A
C2212      C2237   1.453       .  S
C2214      C2235   1.445       .  S
C2215      O3049   1.276       .  A
Zn2216     O3065   1.962       .  S
Zn2216     O2232   2.015       .  S
Zn2216     O3060   1.946       .  S
Zn2217     O2222   2.040       .  S
Zn2217     O2224   2.035       .  S
Zn2218     O2223   1.984       .  S
Zn2218     O2226   2.019       .  S
Zn2218     O2229   2.027       .  S
Zn2218     O2220   1.965       .  S
Zn2219     O2227   2.014       .  S
Zn2219     O2230   1.978       .  S
Zn2219     O3071   2.035   1_545  S
Zn2219     O2220   1.947       .  S
O2220     Zn3056   1.946   1_545  S
O2221      C2233   1.270       .  A
O2222      C2234   1.277       .  A
O2223      C2235   1.269       .  A
O2224      C3073   1.275   1_545  A
O2225     Zn3056   1.962   1_545  S
O2225      C2235   1.268       .  A
O2227      C2236   1.274       .  A
O2228      C2237   1.271       .  A
O2229      C2236   1.274       .  A
O2230      C2237   1.270       .  A
O2231     Zn3059   2.035       .  S
O2231      C2238   1.274       .  A
O2232      C2238   1.271       .  A
C2233      O3064   1.275       .  A
C2236      N2324   1.431       .  S
C2238      N2278   1.435       .  S
C2239      C2241   1.548       .  S
C2239      C2243   1.539       .  S
C2239      C2242   1.542       .  S
C2239      C2401   1.545       .  S
C2240      C2244   1.543       .  S
C2240      C2246   1.538       .  S
C2240      C2245   1.550       .  S
C2240      C2413   1.544       .  S
C2241      C2249   1.387       .  A
C2242      C2253   1.380       .  A
C2243      C2257   1.383       .  A
C2244      C2247   1.383       .  A
C2245      C2251   1.381       .  A
C2246      C2254   1.382       .  A
C2247      H2260   1.083       .  S
N2248      C2249   1.354       .  A
C2249      H2250   1.083       .  S
C2251      H2261   1.082       .  S
N2252      C2253   1.355   1_554  A
C2253      H2259   1.082       .  S
C2254      H2256   1.082       .  S
N2255      C2257   1.358   1_554  A
C2257      H2258   1.082       .  S
C2262      C2264   1.542       .  S
C2262      C2266   1.539       .  S
C2262      C2265   1.547       .  S
C2262      C2404   1.543       .  S
C2263      C2267   1.552       .  S
C2263      C2269   1.538       .  S
C2263      C2268   1.547       .  S
C2263      C2416   1.544       .  S
C2264      C2272   1.383       .  A
C2264      C2267   1.403       .  A
C2265      C2276   1.384       .  A
C2265      C2268   1.398       .  A
C2266      C2280   1.382       .  A
C2266      C2269   1.390       .  A
C2267      C2270   1.389       .  A
C2268      C2274   1.380       .  A
C2269      C2277   1.381       .  A
C2270      H2283   1.082       .  S
C2270      N2271   1.357       .  A
N2271      C2272   1.356       .  A
N2271      C2374   1.439       .  S
C2272      H2273   1.083       .  S
C2274      H2284   1.082       .  S
C2274      N2275   1.356       .  A
N2275      C2276   1.357       .  A
N2275      C2473   1.438       .  S
C2276      H2282   1.081       .  S
C2277      H2279   1.083       .  S
C2277      N2278   1.356       .  A
N2278      C2280   1.358       .  A
C2280      H2281   1.082       .  S
C2285      C2287   1.554       .  S
C2285      C2289   1.545       .  S
C2285      C2288   1.532       .  S
C2285      C2389   1.545       .  S
C2286      C2290   1.543       .  S
C2286      C2292   1.554       .  S
C2286      C2291   1.530       .  S
C2286      C2377   1.544       .  S
C2287      C2295   1.387       .  A
C2288      C2299   1.378       .  A
C2289      C2303   1.378       .  A
C2290      C2293   1.377       .  A
C2291      C2297   1.376       .  A
C2292      C2300   1.387       .  A
C2293      H2306   1.081       .  S
C2293      N2294   1.354   1_556  A
C2295      H2296   1.081       .  S
C2297      H2307   1.083       .  S
C2297      N2298   1.355       .  A
N2298      C2437   1.432       .  S
C2299      H2305   1.082       .  S
C2300      H2302   1.081       .  S
C2300      N2301   1.357   1_556  A
C2303      H2304   1.081       .  S
C2308      C2310   1.551       .  S
C2308      C2312   1.546       .  S
C2308      C2311   1.531       .  S
C2308      C2380   1.543       .  S
C2309      C2313   1.549       .  S
C2309      C2315   1.550       .  S
C2309      C2314   1.523       .  S
C2309      C2392   1.546       .  S
C2310      C2318   1.386       .  A
C2310      C2313   1.403       .  A
C2311      C2322   1.377       .  A
C2311      C2314   1.385       .  A
C2312      C2326   1.380       .  A
C2312      C2315   1.403       .  A
C2313      C2316   1.378       .  A
C2314      C2320   1.372       .  A
C2315      C2323   1.381       .  A
C2316      H2329   1.081       .  S
C2316      N2317   1.356       .  A
N2317      C2318   1.357       .  A
N2317      C2376   1.434       .  S
C2318      H2319   1.081       .  S
C2320      H2330   1.083       .  S
C2320      N2321   1.354       .  A
N2321      C2322   1.356       .  A
N2321      C2428   1.428       .  S
C2322      H2328   1.082       .  S
C2323      H2325   1.081       .  S
C2323      N2324   1.355       .  A
N2324      C2326   1.355       .  A
C2326      H2327   1.081       .  S
Zn2331     O2336   1.980       .  S
Zn2331     O2340   2.011       .  S
Zn2331     O2347   2.032       .  S
Zn2332     O2337   2.040       .  S
Zn2332     O2339   1.990       .  S
Zn2332     O2343   2.041       .  S
Zn2333     O2338   2.038       .  S
Zn2333     O2341   2.030       .  S
Zn2333     O2344   1.997       .  S
Zn2333     O2335   1.965       .  S
Zn2334     O2342   1.975       .  S
Zn2334     O2345   2.001       .  S
Zn2334     O2346   2.030       .  S
Zn2334     O2335   1.954       .  S
O2336      C2348   1.268       .  A
O2338      C2350   1.274       .  A
O2339      C2348   1.269       .  A
O2341      C2349   1.275       .  A
O2342      C2351   1.268       .  A
O2344      C2351   1.270       .  A
O2345      C2352   1.271       .  A
O2346      C2353   1.273       .  A
C2348      C2375   1.440       .  S
C2351      C2373   1.440       .  S
Zn2354     O2359   2.028       .  S
Zn2354     O2363   1.973       .  S
Zn2354     O2370   2.006       .  S
Zn2354     O2358   1.947       .  S
Zn2355     O2360   2.008       .  S
Zn2355     O2362   2.015       .  S
Zn2355     O2366   1.975       .  S
Zn2355     O2358   1.957       .  S
Zn2356     O2361   1.996       .  S
Zn2356     O2364   2.043       .  S
Zn2356     O2367   2.048       .  S
Zn2356     O2358   1.964       .  S
Zn2357     O2365   2.037       .  S
Zn2357     O2368   1.997       .  S
Zn2357     O2369   2.050       .  S
Zn2357     O2358   1.969       .  S
O2359      C2371   1.273       .  A
O2360      C2372   1.272       .  A
O2361      C2373   1.270       .  A
O2362      C2371   1.271       .  A
O2363      C2373   1.267       .  A
O2364      C2372   1.276       .  A
O2365      C2374   1.276       .  A
O2366      C2375   1.268       .  A
O2367      C2374   1.278       .  A
O2368      C2375   1.271       .  A
O2369      C2376   1.276       .  A
O2370      C2376   1.272       .  A
C2377      C2378   1.407       .  A
C2377      C2382   1.426       .  A
C2378      C2379   1.403       .  A
C2378      H2387   1.081       .  S
C2379      C2380   1.426       .  A
C2379      S2383   1.810       .  S
C2380      C2381   1.408       .  A
C2381      C2382   1.403       .  A
C2381      H2388   1.081       .  S
C2382      S2384   1.810       .  S
S2383      H2386   1.398       .  S
S2384      H2385   1.398       .  S
C2389      C2390   1.407       .  A
C2389      C2394   1.425       .  A
C2390      C2391   1.403       .  A
C2390      H2399   1.081       .  S
C2391      C2392   1.425       .  A
C2391      S2395   1.809       .  S
C2392      C2393   1.409       .  A
C2393      C2394   1.404       .  A
C2393      H2400   1.080       .  S
C2394      S2396   1.811       .  S
S2395      H2398   1.398       .  S
S2396      H2397   1.397       .  S
C2401      C2402   1.409       .  A
C2401      C2406   1.428       .  A
C2402      C2403   1.400       .  A
C2402      H2411   1.082       .  S
C2403      C2404   1.422       .  A
C2403      S2407   1.806       .  S
C2404      C2405   1.407       .  A
C2405      C2406   1.406       .  A
C2405      H2412   1.080       .  S
C2406      S2408   1.811       .  S
S2407      H2410   1.401       .  S
S2408      H2409   1.395       .  S
C2413      C2414   1.406       .  A
C2413      C2418   1.422       .  A
C2414      C2415   1.402       .  A
C2414      H2423   1.080       .  S
C2415      C2416   1.429       .  A
C2415      S2419   1.815       .  S
C2416      C2417   1.409       .  A
C2417      C2418   1.403       .  A
C2417      H2424   1.080       .  S
C2418      S2420   1.806       .  S
S2419      H2422   1.393       .  S
S2420      H2421   1.401       .  S
C2425      C2426   1.401       .  A
C2425      C2430   1.409   1_565  A
C2425      N3023   1.430       .  S
C2426      C2427   1.397   1_565  A
C2426      H3275   1.083       .  S
C2427      C2428   1.410       .  A
C2427      S2431   1.803       .  S
C2428      C2429   1.400       .  A
C2429      C2430   1.400       .  A
C2429      H2436   1.082       .  S
C2430      S2432   1.806       .  S
S2431      H2434   1.407       .  S
S2432      H3273   1.407       .  S
H2433      S3272   1.407       .  S
H2435      C3266   1.083       .  S
C2437      C2438   1.402       .  A
C2438      C2439   1.399       .  A
C2438      H2447   1.083       .  S
C2439      S2443   1.802       .  S
C2440      C2441   1.402       .  A
C2440      N3000   1.433       .  S
C2441      C2442   1.399   1_565  A
C2441      H3288   1.083       .  S
C2442      S2444   1.803   1_545  S
S2443      H3286   1.407       .  S
S2444      H2445   1.406   1_565  S
H2446      S3283   1.407       .  S
H2448      C3281   1.083       .  S
C2449      C2450   1.405       .  A
C2449      C2454   1.421       .  A
C2450      C2451   1.403       .  A
C2450      H2459   1.082       .  S
C2451      C2452   1.430       .  A
C2451      S2455   1.812       .  S
C2452      C2453   1.410       .  A
C2453      C2454   1.403       .  A
C2453      H2460   1.082       .  S
C2454      S2456   1.805       .  S
S2455      H2458   1.394       .  S
S2456      H2457   1.406       .  S
C2461      C2462   1.406       .  A
C2461      C2466   1.419       .  A
C2462      C2463   1.403       .  A
C2462      H2471   1.082       .  S
C2463      C2464   1.430       .  A
C2463      S2467   1.813       .  S
C2464      C2465   1.413       .  A
C2465      C2466   1.402       .  A
C2465      H2472   1.082       .  S
C2466      S2468   1.806       .  S
S2467      H2470   1.392       .  S
S2468      H2469   1.405       .  S
C2473      C2474   1.406       .  A
C2473      C2478   1.411       .  A
C2474      C2475   1.404       .  A
C2474      H2483   1.083       .  S
C2475      C2476   1.411       .  A
C2476      C2477   1.403       .  A
C2477      C2478   1.398       .  A
C2477      H2484   1.083       .  S
C2478      S2480   1.802       .  S
S2479      H2482   1.406       .  S
S2480      H2481   1.406       .  S
C2485      C2490   1.411   1_554  A
C2486      C2487   1.396       .  A
C2486      H2495   1.084       .  S
C2487      C2488   1.412       .  A
C2487      S2491   1.802       .  S
C2489      C2490   1.404       .  A
C2489      H2496   1.083       .  S
S2491      H2494   1.407       .  S
S2492      H2493   1.406       .  S
C2497      C2498   1.410       .  A
C2497      C2502   1.422       .  A
C2498      C2499   1.414       .  A
C2498      H2507   1.081       .  S
C2499      C2500   1.422       .  A
C2499      S2503   1.808       .  S
C2500      C2501   1.409       .  A
C2501      C2502   1.400       .  A
C2501      H2508   1.082       .  S
C2502      S2504   1.806       .  S
S2503      H2506   1.406   1_655  S
S2504      H2505   1.404       .  S
C2509      C2510   1.410       .  A
C2509      C2514   1.427       .  A
C2510      C2511   1.402       .  A
C2510      H2519   1.082       .  S
C2511      C2512   1.420       .  A
C2511      S2515   1.804       .  S
C2512      C2513   1.406       .  A
C2513      C2514   1.403       .  A
C2513      H2520   1.083       .  S
C2514      S2516   1.810       .  S
S2515      H2518   1.406       .  S
S2516      H2517   1.396       .  S
C2521      C2523   1.549       .  S
C2521      C2525   1.536       .  S
C2521      C2524   1.540       .  S
C2521      C2929   1.544       .  S
C2522      C2526   1.550       .  S
C2522      C2528   1.532       .  S
C2522      C2527   1.549       .  S
C2522      C2917   1.547       .  S
C2523      C2531   1.389       .  A
C2523      C2946   1.413   1_554  A
C2524      C2535   1.375       .  A
C2524      C2947   1.400   1_554  A
C2525      C2539   1.382       .  A
C2525      C2948   1.386   1_554  A
C2526      C2943   1.413       .  A
C2526      C2529   1.386       .  A
C2527      C2944   1.400       .  A
C2527      C2533   1.383       .  A
C2528      C2945   1.386       .  A
C2528      C2536   1.380       .  A
C2529      H2542   1.082       .  S
C2529      N2950   1.351       .  A
N2530      C2949   1.351   1_554  A
N2530      C2531   1.353       .  A
N2530      C2773   1.436       .  S
C2531      H2532   1.083       .  S
C2533      H2543   1.082       .  S
C2533      N2534   1.359       .  A
N2534      C2955   1.354       .  A
C2535      H2541   1.081       .  S
C2535      N2954   1.354       .  A
C2536      H2538   1.082       .  S
C2536      N2957   1.358       .  A
N2537      C2956   1.358   1_554  A
N2537      C2539   1.358       .  A
N2537      C2630   1.435       .  S
C2539      H2540   1.083       .  S
C2544      C2546   1.525       .  S
C2544      C2548   1.543       .  S
C2544      C2547   1.549       .  S
C2544      C2932   1.543       .  S
C2545      C2549   1.537       .  S
C2545      C2551   1.553       .  S
C2545      C2550   1.544       .  S
C2545      C2920   1.549       .  S
C2546      C2554   1.376       .  A
C2546      C2549   1.386       .  A
C2547      C2558   1.380       .  A
C2547      C2550   1.399       .  A
C2548      C2562   1.384       .  A
C2548      C2551   1.416       .  A
C2549      C2552   1.382       .  A
C2550      C2556   1.380       .  A
C2551      C2559   1.387       .  A
C2552      H2565   1.082       .  S
C2552      N2553   1.360       .  A
N2553      C2554   1.355       .  A
N2553      C2654   1.433       .  S
C2554      H2555   1.083       .  S
C2556      H2566   1.081       .  S
C2556      N2557   1.358       .  A
N2557      C2558   1.357       .  A
C2558      H2564   1.082       .  S
C2559      H2561   1.083       .  S
C2559      N2560   1.352       .  A
N2560      C2562   1.349       .  A
N2560      C2791   1.434       .  S
C2562      H2563   1.082       .  S
C2567      C2569   1.542       .  S
C2567      C2571   1.537       .  S
C2567      C2570   1.546       .  S
C2567      C2869   1.544       .  S
C2568      C2572   1.533       .  S
C2568      C2574   1.538       .  S
C2568      C2573   1.544       .  S
C2568      C2881   1.544       .  S
C2569      C2577   1.385       .  A
C2569      C2992   1.406       .  A
C2570      C2581   1.380       .  A
C2570      C2993   1.398       .  A
C2571      C2585   1.385       .  A
C2571      C2994   1.404       .  A
C2572      C2989   1.406   1_554  A
C2572      C2575   1.382       .  A
C2573      C2990   1.398   1_554  A
C2573      C2579   1.377       .  A
C2574      C2991   1.404   1_554  A
C2574      C2582   1.381       .  A
C2575      H2588   1.082       .  S
C2575      N2576   1.349   1_554  A
N2576      C2997   1.351       .  A
N2576      C2635   1.430       .  S
C2577      H2578   1.083       .  S
C2577      N2996   1.351       .  A
C2579      H2589   1.082       .  S
C2579      N2580   1.354   1_554  A
N2580      C3001   1.357       .  A
C2581      H2587   1.081       .  S
C2581      N3000   1.357       .  A
C2582      H2584   1.083       .  S
C2582      N2583   1.350   1_554  A
N2583      C3005   1.352       .  A
N2583      C2772   1.430       .  S
C2585      H2586   1.082       .  S
C2585      N3003   1.352       .  A
C2590      C2592   1.545       .  S
C2590      C2594   1.549       .  S
C2590      C2593   1.536       .  S
C2590      C2884   1.548       .  S
C2591      C2595   1.539       .  S
C2591      C2597   1.538       .  S
C2591      C2596   1.541       .  S
C2591      C2872   1.546       .  S
C2592      C2600   1.383       .  A
C2592      C2595   1.403       .  A
C2593      C2604   1.377       .  A
C2593      C2596   1.395       .  A
C2594      C2608   1.388       .  A
C2594      C2597   1.405       .  A
C2595      C2598   1.381       .  A
C2596      C2602   1.374       .  A
C2597      C2605   1.378       .  A
C2598      H2611   1.083       .  S
C2598      N2599   1.352       .  A
N2599      C2600   1.353       .  A
N2599      C2653   1.430       .  S
C2600      H2601   1.082       .  S
C2602      H2612   1.082       .  S
C2602      N2603   1.354       .  A
N2603      C2604   1.354       .  A
C2604      H2610   1.082       .  S
C2605      H2607   1.083       .  S
C2605      N2606   1.350       .  A
N2606      C2608   1.355       .  A
N2606      C2792   1.433       .  S
C2608      H2609   1.083       .  S
Zn2613     O2618   2.040       .  S
Zn2613     O2629   2.040       .  S
Zn2614     O2619   2.038       .  S
Zn2614     O2621   2.031       .  S
Zn2614     O2625   1.988       .  S
Zn2614     O3037   1.967       .  S
Zn2615     O2620   1.979       .  S
Zn2615     O2623   2.015       .  S
Zn2615     O2617   1.946   1_554  S
Zn2616     O2624   2.020       .  S
O2617     Zn3034   1.967       .  S
O2618      C2630   1.276       .  A
O2619      C3051   1.274       .  A
O2620      C2632   1.271       .  A
O2622      C2632   1.271       .  A
O2623      C2631   1.274       .  A
O2624      C3053   1.272       .  A
O2625      C2634   1.270       .  A
O2626      C2633   1.273   1_554  A
O2627      C2634   1.268       .  A
O2628      C3055   1.270       .  A
C2631      N3141   1.434       .  S
C2631      O3039   1.274   1_554  A
C2632      C2657   1.452       .  S
C2633      N3088   1.436       .  S
C2633      O3044   1.272       .  A
C2634      C2655   1.445       .  S
C2635      O3048   1.270       .  A
Zn2636     O2652   2.015       .  S
Zn2637     O2642   2.040       .  S
Zn2637     O2644   2.035       .  S
Zn2638     O2643   1.984       .  S
Zn2638     O2646   2.019       .  S
Zn2638     O2649   2.027       .  S
Zn2638     O2640   1.965       .  S
Zn2639     O2647   2.014       .  S
Zn2639     O2650   1.978       .  S
Zn2639     O2640   1.947       .  S
O2641      C2653   1.270       .  A
O2642      C2654   1.277       .  A
O2643      C2655   1.269       .  A
O2645      C2655   1.268       .  A
O2647      C2656   1.274       .  A
O2648      C2657   1.271       .  A
O2649      C2656   1.274       .  A
O2650      C2657   1.270       .  A
O2651      C2658   1.274       .  A
O2652      C2658   1.271       .  A
C2656      N2744   1.431       .  S
C2658      N2698   1.435       .  S
C2659      C2661   1.548       .  S
C2659      C2663   1.539       .  S
C2659      C2662   1.542       .  S
C2659      C2821   1.545       .  S
C2660      C2664   1.543       .  S
C2660      C2666   1.538       .  S
C2660      C2665   1.550       .  S
C2660      C2833   1.544       .  S
C2661      C2669   1.387       .  A
C2661      C3084   1.410       .  A
C2662      C2673   1.380       .  A
C2662      C3085   1.398       .  A
C2663      C2677   1.383       .  A
C2663      C3086   1.389       .  A
C2664      C3081   1.410   1_554  A
C2664      C2667   1.383       .  A
C2665      C3082   1.398   1_554  A
C2665      C2671   1.381       .  A
C2666      C3083   1.389   1_554  A
C2666      C2674   1.382       .  A
C2667      H2680   1.083       .  S
C2667      N3088   1.352   1_554  A
N2668      C3087   1.352       .  A
N2668      C2669   1.354       .  A
N2668      C3053   1.436       .  S
C2669      H2670   1.083       .  S
C2671      H2681   1.082       .  S
C2671      N3092   1.357       .  A
N2672      C3091   1.357       .  A
N2672      C2673   1.355       .  A
N2672      C3328   1.436       .  S
C2673      H2679   1.082       .  S
C2674      H2676   1.082       .  S
C2674      N3095   1.357       .  A
N2675      C3094   1.357       .  A
N2675      C2677   1.358       .  A
N2675      C3189   1.436       .  S
C2677      H2678   1.082       .  S
C2682      C2684   1.542       .  S
C2682      C2686   1.539       .  S
C2682      C2685   1.547       .  S
C2682      C2824   1.543       .  S
C2683      C2687   1.552       .  S
C2683      C2689   1.538       .  S
C2683      C2688   1.547       .  S
C2683      C2836   1.544       .  S
C2684      C2692   1.383       .  A
C2684      C2687   1.403       .  A
C2685      C2696   1.384       .  A
C2685      C2688   1.398       .  A
C2686      C2700   1.382       .  A
C2686      C2689   1.390       .  A
C2687      C2690   1.389       .  A
C2688      C2694   1.380       .  A
C2689      C2697   1.382       .  A
C2690      H2703   1.082       .  S
C2690      N2691   1.357       .  A
N2691      C2692   1.356       .  A
N2691      C2794   1.439       .  S
C2692      H2693   1.083       .  S
C2694      H2704   1.082       .  S
C2694      N2695   1.356       .  A
N2695      C2696   1.357       .  A
N2695      C2893   1.438       .  S
C2696      H2702   1.081       .  S
C2697      H2699   1.083       .  S
C2697      N2698   1.357       .  A
N2698      C2700   1.358       .  A
C2700      H2701   1.082       .  S
C2705      C2707   1.554       .  S
C2705      C2709   1.545       .  S
C2705      C2708   1.532       .  S
C2705      C2809   1.545       .  S
C2706      C2710   1.543       .  S
C2706      C2712   1.554       .  S
C2706      C2711   1.530       .  S
C2706      C2797   1.544       .  S
C2707      C2715   1.387       .  A
C2707      C3130   1.401   1_554  A
C2708      C2719   1.378       .  A
C2708      C3131   1.388   1_554  A
C2709      C2723   1.377       .  A
C2709      C3132   1.402   1_554  A
C2710      C3127   1.401       .  A
C2710      C2713   1.377       .  A
C2711      C3128   1.388       .  A
C2711      C2717   1.376       .  A
C2712      C3129   1.402       .  A
C2712      C2720   1.387       .  A
C2713      H2726   1.081       .  S
C2713      N2714   1.354       .  A
N2714      C3135   1.356       .  A
N2714      C3190   1.432       .  S
C2715      H2716   1.081       .  S
C2715      N3134   1.356       .  A
C2717      H2727   1.083       .  S
C2717      N2718   1.355       .  A
N2718      C3139   1.357       .  A
N2718      C2857   1.432       .  S
C2719      H2725   1.082       .  S
C2719      N3138   1.357   1_554  A
C2720      H2722   1.081       .  S
C2720      N2721   1.357       .  A
N2721      C3143   1.354       .  A
N2721      C3051   1.434       .  S
C2723      H2724   1.081       .  S
C2723      N3141   1.354       .  A
C2728      C2730   1.551       .  S
C2728      C2732   1.546       .  S
C2728      C2731   1.531       .  S
C2728      C2800   1.543       .  S
C2729      C2733   1.549       .  S
C2729      C2735   1.550       .  S
C2729      C2734   1.523       .  S
C2729      C2812   1.546       .  S
C2730      C2738   1.386       .  A
C2730      C2733   1.403       .  A
C2731      C2742   1.377       .  A
C2731      C2734   1.385       .  A
C2732      C2746   1.380       .  A
C2732      C2735   1.403       .  A
C2733      C2736   1.378       .  A
C2734      C2740   1.372       .  A
C2735      C2743   1.381       .  A
C2736      H2749   1.081       .  S
C2736      N2737   1.356       .  A
N2737      C2738   1.357       .  A
N2737      C2796   1.434       .  S
C2738      H2739   1.081       .  S
C2740      H2750   1.083       .  S
C2740      N2741   1.354       .  A
N2741      C2742   1.356       .  A
N2741      C2848   1.428       .  S
C2742      H2748   1.082       .  S
C2743      H2745   1.081       .  S
C2743      N2744   1.355       .  A
N2744      C2746   1.355       .  A
C2746      H2747   1.081       .  S
Zn2751     O2756   1.980       .  S
Zn2751     O2760   2.011       .  S
Zn2751     O2767   2.032       .  S
Zn2751     O3175   1.947       .  S
Zn2752     O2757   2.040       .  S
Zn2752     O2759   1.990       .  S
Zn2752     O2763   2.041       .  S
Zn2752     O3175   1.967       .  S
Zn2753     O2758   2.038       .  S
Zn2753     O2761   2.030       .  S
Zn2753     O2764   1.997       .  S
Zn2753     O2755   1.965       .  S
Zn2754     O2762   1.975       .  S
Zn2754     O2765   2.001       .  S
Zn2754     O2766   2.030       .  S
Zn2754     O2755   1.954       .  S
O2755     Zn3171   1.947   1_554  S
O2755     Zn3172   1.967   1_554  S
O2756      C2768   1.268       .  A
O2757      C3189   1.276       .  A
O2758      C2770   1.274       .  A
O2759      C2768   1.269       .  A
O2760      C3190   1.274       .  A
O2761      C2769   1.275       .  A
O2762      C2771   1.268       .  A
O2763      C3192   1.276       .  A
O2764      C2771   1.270       .  A
O2765      C2772   1.271   1_554  A
O2766      C2773   1.273       .  A
O2767      C3193   1.274       .  A
C2768      C2795   1.440       .  S
C2769      N3095   1.436       .  S
C2769      O3177   1.276   1_554  A
C2770      N3134   1.432       .  S
C2770      O3180   1.274   1_554  A
C2771      C2793   1.440       .  S
C2772      O3183   1.276       .  A
C2773      O3187   1.274   1_554  A
Zn2774     O2779   2.028       .  S
Zn2774     O2783   1.973       .  S
Zn2774     O2790   2.006       .  S
Zn2774     O2778   1.947       .  S
Zn2775     O2780   2.008       .  S
Zn2775     O2782   2.015       .  S
Zn2775     O2786   1.975       .  S
Zn2775     O2778   1.957       .  S
Zn2776     O2781   1.996       .  S
Zn2776     O2784   2.043       .  S
Zn2776     O2787   2.048       .  S
Zn2776     O2778   1.964       .  S
Zn2777     O2785   2.037       .  S
Zn2777     O2788   1.997       .  S
Zn2777     O2789   2.050       .  S
Zn2777     O2778   1.969       .  S
O2779      C2791   1.273       .  A
O2780      C2792   1.272       .  A
O2781      C2793   1.270       .  A
O2782      C2791   1.271       .  A
O2783      C2793   1.267       .  A
O2784      C2792   1.276       .  A
O2785      C2794   1.276       .  A
O2786      C2795   1.268       .  A
O2787      C2794   1.278       .  A
O2788      C2795   1.271       .  A
O2789      C2796   1.276       .  A
O2790      C2796   1.272       .  A
C2797      C2798   1.407       .  A
C2797      C2802   1.426       .  A
C2798      C2799   1.403       .  A
C2798      H2807   1.081       .  S
C2799      C2800   1.426       .  A
C2799      S2803   1.810       .  S
C2800      C2801   1.408       .  A
C2801      C2802   1.403       .  A
C2801      H2808   1.081       .  S
C2802      S2804   1.810       .  S
S2803      H2806   1.398       .  S
S2804      H2805   1.398       .  S
C2809      C2810   1.407       .  A
C2809      C2814   1.425       .  A
C2810      C2811   1.403       .  A
C2810      H2819   1.081       .  S
C2811      C2812   1.425       .  A
C2811      S2815   1.809       .  S
C2812      C2813   1.409       .  A
C2813      C2814   1.404       .  A
C2813      H2820   1.080       .  S
C2814      S2816   1.811       .  S
S2815      H2818   1.398       .  S
S2816      H2817   1.397       .  S
C2821      C2822   1.409       .  A
C2821      C2826   1.428       .  A
C2822      C2823   1.400       .  A
C2822      H2831   1.082       .  S
C2823      C2824   1.422       .  A
C2823      S2827   1.806       .  S
C2824      C2825   1.407       .  A
C2825      C2826   1.406       .  A
C2825      H2832   1.080       .  S
C2826      S2828   1.811       .  S
S2827      H2830   1.401       .  S
S2828      H2829   1.395       .  S
C2833      C2834   1.406       .  A
C2833      C2838   1.422       .  A
C2834      C2835   1.402       .  A
C2834      H2843   1.080       .  S
C2835      C2836   1.429       .  A
C2835      S2839   1.815       .  S
C2836      C2837   1.409       .  A
C2837      C2838   1.403       .  A
C2837      H2844   1.080       .  S
C2838      S2840   1.806       .  S
S2839      H2842   1.393       .  S
S2840      H2841   1.401       .  S
C2845      C2846   1.401       .  A
C2845      C2850   1.409       .  A
C2846      C2847   1.397       .  A
C2847      C2848   1.410       .  A
C2847      S2851   1.803       .  S
C2848      C2849   1.400       .  A
C2849      C2850   1.400       .  A
C2849      H2856   1.082       .  S
C2850      S2852   1.806       .  S
S2851      H2854   1.407       .  S
C2857      C2858   1.402       .  A
C2857      C3282   1.411       .  A
C2858      C2859   1.399       .  A
C2858      H2867   1.083       .  S
C2859      C3280   1.411       .  A
C2859      S2863   1.802       .  S
C2860      C3279   1.411       .  A
C2860      C2861   1.402   1_556  A
C2861      C2862   1.399       .  A
C2862      C3277   1.411   1_554  A
C2862      S2864   1.803       .  S
S2864      H2865   1.406       .  S
C2869      C2870   1.405       .  A
C2869      C2874   1.421       .  A
C2870      C2871   1.403       .  A
C2870      H2879   1.082       .  S
C2871      C2872   1.430       .  A
C2871      S2875   1.812       .  S
C2872      C2873   1.410       .  A
C2873      C2874   1.403       .  A
C2873      H2880   1.082       .  S
C2874      S2876   1.805       .  S
S2875      H2878   1.394       .  S
S2876      H2877   1.406       .  S
C2881      C2882   1.406       .  A
C2881      C2886   1.419       .  A
C2882      C2883   1.403       .  A
C2882      H2891   1.082       .  S
C2883      C2884   1.430       .  A
C2883      S2887   1.813       .  S
C2884      C2885   1.413       .  A
C2885      C2886   1.402       .  A
C2885      H2892   1.082       .  S
C2886      S2888   1.806       .  S
S2887      H2890   1.392       .  S
S2888      H2889   1.405       .  S
C2893      C2894   1.406       .  A
C2893      C2898   1.411       .  A
C2894      C2895   1.404       .  A
C2894      H2903   1.083       .  S
C2895      C2896   1.411       .  A
C2896      C2897   1.403       .  A
C2897      C2898   1.398       .  A
C2897      H2904   1.083       .  S
C2898      S2900   1.802       .  S
S2899      H2902   1.406       .  S
S2900      H2901   1.406       .  S
C2905      C3326   1.401       .  A
C2905      C2910   1.411       .  A
C2906      C3325   1.401       .  A
C2906      C2907   1.396       .  A
C2906      H2915   1.084       .  S
C2907      C2908   1.412       .  A
C2907      S2911   1.802       .  S
C2908      C3329   1.404   1_554  A
C2908      N3092   1.436       .  S
C2909      C3328   1.404       .  A
C2909      C2910   1.404       .  A
C2909      H2916   1.083       .  S
S2911      H2914   1.407       .  S
S2912      H2913   1.406       .  S
C2917      C2918   1.410       .  A
C2917      C2922   1.422       .  A
C2918      C2919   1.414       .  A
C2918      H2927   1.081       .  S
C2919      C2920   1.422       .  A
C2919      S2923   1.808       .  S
C2920      C2921   1.409       .  A
C2921      C2922   1.400       .  A
C2921      H2928   1.082       .  S
C2922      S2924   1.806       .  S
S2923      H2926   1.406   1_655  S
S2924      H2925   1.404       .  S
C2929      C2930   1.410       .  A
C2929      C2934   1.427       .  A
C2930      C2931   1.402       .  A
C2930      H2939   1.082       .  S
C2931      C2932   1.420       .  A
C2931      S2935   1.804       .  S
C2932      C2933   1.406       .  A
C2933      C2934   1.403       .  A
C2933      H2940   1.083       .  S
C2934      S2936   1.810       .  S
S2935      H2938   1.406       .  S
S2936      H2937   1.396       .  S
C2941      C2943   1.549       .  S
C2941      C2945   1.536       .  S
C2941      C2944   1.540       .  S
C2941      C3349   1.544       .  S
C2942      C2946   1.550       .  S
C2942      C2948   1.532       .  S
C2942      C2947   1.549       .  S
C2942      C3337   1.547       .  S
C2943      C2951   1.389       .  A
C2944      C2955   1.375       .  A
C2945      C2959   1.382       .  A
C2946      C2949   1.386       .  A
C2947      C2953   1.383       .  A
C2948      C2956   1.380       .  A
C2949      H2962   1.082       .  S
N2950      C2951   1.353       .  A
N2950      C3193   1.436       .  S
C2951      H2952   1.083       .  S
C2953      H2963   1.082       .  S
C2953      N2954   1.359   1_556  A
C2955      H2961   1.082       .  S
C2956      H2958   1.082       .  S
N2957      C2959   1.358       .  A
N2957      C3050   1.435       .  S
C2959      H2960   1.083       .  S
C2964      C2966   1.525       .  S
C2964      C2968   1.543       .  S
C2964      C2967   1.549       .  S
C2964      C3352   1.543       .  S
C2965      C2969   1.537       .  S
C2965      C2971   1.553       .  S
C2965      C2970   1.544       .  S
C2965      C3340   1.549       .  S
C2966      C2974   1.376       .  A
C2966      C2969   1.386       .  A
C2967      C2978   1.380       .  A
C2967      C2970   1.399       .  A
C2968      C2982   1.384       .  A
C2968      C2971   1.416       .  A
C2969      C2972   1.382       .  A
C2970      C2976   1.380       .  A
C2971      C2979   1.387       .  A
C2972      H2985   1.082       .  S
C2972      N2973   1.360       .  A
N2973      C2974   1.355       .  A
N2973      C3074   1.433       .  S
C2974      H2975   1.083       .  S
C2976      H2986   1.081       .  S
C2976      N2977   1.358       .  A
N2977      C2978   1.357       .  A
C2978      H2984   1.082       .  S
C2979      H2981   1.083       .  S
C2979      N2980   1.352       .  A
N2980      C2982   1.349       .  A
N2980      C3211   1.434       .  S
C2982      H2983   1.082       .  S
C2987      C2989   1.542       .  S
C2987      C2991   1.537       .  S
C2987      C2990   1.546       .  S
C2987      C3289   1.544       .  S
C2988      C2992   1.533       .  S
C2988      C2994   1.538       .  S
C2988      C2993   1.544       .  S
C2988      C3301   1.544       .  S
C2989      C2997   1.385       .  A
C2990      C3001   1.380       .  A
C2991      C3005   1.385       .  A
C2992      C2995   1.382       .  A
C2993      C2999   1.377       .  A
C2994      C3002   1.381       .  A
C2995      H3008   1.082       .  S
C2995      N2996   1.349       .  A
N2996      C3055   1.430       .  S
C2997      H2998   1.083       .  S
C2999      H3009   1.082       .  S
C2999      N3000   1.354       .  A
C3001      H3007   1.081       .  S
C3002      H3004   1.083       .  S
C3002      N3003   1.350       .  A
N3003      C3192   1.430       .  S
C3005      H3006   1.082       .  S
C3010      C3012   1.545       .  S
C3010      C3014   1.549       .  S
C3010      C3013   1.536       .  S
C3010      C3304   1.548       .  S
C3011      C3015   1.539       .  S
C3011      C3017   1.538       .  S
C3011      C3016   1.541       .  S
C3011      C3292   1.546       .  S
C3012      C3020   1.383       .  A
C3012      C3015   1.403       .  A
C3013      C3024   1.377       .  A
C3013      C3016   1.395       .  A
C3014      C3028   1.388       .  A
C3014      C3017   1.405       .  A
C3015      C3018   1.381       .  A
C3016      C3022   1.374       .  A
C3017      C3025   1.378       .  A
C3018      H3031   1.083       .  S
C3018      N3019   1.352       .  A
N3019      C3020   1.353       .  A
N3019      C3073   1.430       .  S
C3020      H3021   1.082       .  S
C3022      H3032   1.082       .  S
C3022      N3023   1.354       .  A
N3023      C3024   1.354       .  A
C3024      H3030   1.082       .  S
C3025      H3027   1.083       .  S
C3025      N3026   1.350       .  A
N3026      C3028   1.355       .  A
N3026      C3212   1.433       .  S
C3028      H3029   1.083       .  S
Zn3033     O3038   2.040       .  S
Zn3033     O3049   2.040       .  S
Zn3034     O3039   2.038       .  S
Zn3034     O3041   2.031       .  S
Zn3034     O3045   1.988       .  S
Zn3035     O3040   1.979       .  S
Zn3035     O3043   2.015       .  S
Zn3035     O3037   1.946       .  S
Zn3036     O3044   2.020       .  S
O3038      C3050   1.276       .  A
O3040      C3052   1.271       .  A
O3042      C3052   1.271       .  A
O3043      C3051   1.274       .  A
O3045      C3054   1.270       .  A
O3046      C3053   1.273       .  A
O3047      C3054   1.268       .  A
C3052      C3077   1.452       .  S
C3054      C3075   1.445       .  S
Zn3056     O3072   2.015       .  S
Zn3057     O3062   2.040       .  S
Zn3057     O3064   2.035       .  S
Zn3058     O3063   1.984       .  S
Zn3058     O3066   2.019       .  S
Zn3058     O3069   2.027       .  S
Zn3058     O3060   1.965       .  S
Zn3059     O3067   2.014       .  S
Zn3059     O3070   1.978       .  S
Zn3059     O3060   1.947       .  S
O3061      C3073   1.270       .  A
O3062      C3074   1.277       .  A
O3063      C3075   1.269       .  A
O3065      C3075   1.268       .  A
O3067      C3076   1.274       .  A
O3068      C3077   1.271       .  A
O3069      C3076   1.274       .  A
O3070      C3077   1.270       .  A
O3071      C3078   1.274       .  A
O3072      C3078   1.271       .  A
C3076      N3164   1.431       .  S
C3078      N3118   1.435       .  S
C3079      C3081   1.548       .  S
C3079      C3083   1.539       .  S
C3079      C3082   1.542       .  S
C3079      C3241   1.545       .  S
C3080      C3084   1.543       .  S
C3080      C3086   1.538       .  S
C3080      C3085   1.550       .  S
C3080      C3253   1.544       .  S
C3081      C3089   1.387       .  A
C3082      C3093   1.380       .  A
C3083      C3097   1.383       .  A
C3084      C3087   1.383       .  A
C3085      C3091   1.381       .  A
C3086      C3094   1.382       .  A
C3087      H3100   1.083       .  S
N3088      C3089   1.354       .  A
C3089      H3090   1.083       .  S
C3091      H3101   1.082       .  S
N3092      C3093   1.355   1_554  A
C3093      H3099   1.082       .  S
C3094      H3096   1.082       .  S
N3095      C3097   1.358   1_554  A
C3097      H3098   1.082       .  S
C3102      C3104   1.543       .  S
C3102      C3106   1.539       .  S
C3102      C3105   1.547       .  S
C3102      C3244   1.543       .  S
C3103      C3107   1.552       .  S
C3103      C3109   1.538       .  S
C3103      C3108   1.547       .  S
C3103      C3256   1.544       .  S
C3104      C3112   1.383       .  A
C3104      C3107   1.403       .  A
C3105      C3116   1.384       .  A
C3105      C3108   1.398       .  A
C3106      C3120   1.382       .  A
C3106      C3109   1.390       .  A
C3107      C3110   1.389       .  A
C3108      C3114   1.380       .  A
C3109      C3117   1.382       .  A
C3110      H3123   1.082       .  S
C3110      N3111   1.357       .  A
N3111      C3112   1.356       .  A
N3111      C3214   1.439       .  S
C3112      H3113   1.083       .  S
C3114      H3124   1.082       .  S
C3114      N3115   1.356       .  A
N3115      C3116   1.357       .  A
N3115      C3313   1.438       .  S
C3116      H3122   1.081       .  S
C3117      H3119   1.083       .  S
C3117      N3118   1.357       .  A
N3118      C3120   1.358       .  A
C3120      H3121   1.082       .  S
C3125      C3127   1.554       .  S
C3125      C3129   1.545       .  S
C3125      C3128   1.532       .  S
C3125      C3229   1.545       .  S
C3126      C3130   1.543       .  S
C3126      C3132   1.554       .  S
C3126      C3131   1.530       .  S
C3126      C3217   1.544       .  S
C3127      C3135   1.387       .  A
C3128      C3139   1.378       .  A
C3129      C3143   1.378       .  A
C3130      C3133   1.377       .  A
C3131      C3137   1.376       .  A
C3132      C3140   1.387       .  A
C3133      H3146   1.081       .  S
C3133      N3134   1.354   1_556  A
C3135      H3136   1.081       .  S
C3137      H3147   1.083       .  S
C3137      N3138   1.355       .  A
N3138      C3277   1.432       .  S
C3139      H3145   1.082       .  S
C3140      H3142   1.081       .  S
C3140      N3141   1.357   1_556  A
C3143      H3144   1.081       .  S
C3148      C3150   1.551       .  S
C3148      C3152   1.546       .  S
C3148      C3151   1.531       .  S
C3148      C3220   1.543       .  S
C3149      C3153   1.549       .  S
C3149      C3155   1.550       .  S
C3149      C3154   1.523       .  S
C3149      C3232   1.546       .  S
C3150      C3158   1.386       .  A
C3150      C3153   1.403       .  A
C3151      C3162   1.377       .  A
C3151      C3154   1.385       .  A
C3152      C3166   1.380       .  A
C3152      C3155   1.403       .  A
C3153      C3156   1.378       .  A
C3154      C3160   1.372       .  A
C3155      C3163   1.381       .  A
C3156      H3169   1.081       .  S
C3156      N3157   1.356       .  A
N3157      C3158   1.357       .  A
N3157      C3216   1.434       .  S
C3158      H3159   1.081       .  S
C3160      H3170   1.083       .  S
C3160      N3161   1.354       .  A
N3161      C3162   1.356       .  A
N3161      C3268   1.428       .  S
C3162      H3168   1.082       .  S
C3163      H3165   1.081       .  S
C3163      N3164   1.355       .  A
N3164      C3166   1.355       .  A
C3166      H3167   1.081       .  S
Zn3171     O3176   1.980       .  S
Zn3171     O3180   2.011       .  S
Zn3171     O3187   2.032       .  S
Zn3172     O3177   2.040       .  S
Zn3172     O3179   1.990       .  S
Zn3172     O3183   2.041       .  S
Zn3173     O3178   2.038       .  S
Zn3173     O3181   2.030       .  S
Zn3173     O3184   1.997       .  S
Zn3173     O3175   1.965       .  S
Zn3174     O3182   1.975       .  S
Zn3174     O3185   2.001       .  S
Zn3174     O3186   2.030       .  S
Zn3174     O3175   1.954       .  S
O3176      C3188   1.268       .  A
O3178      C3190   1.274       .  A
O3179      C3188   1.269       .  A
O3181      C3189   1.275       .  A
O3182      C3191   1.268       .  A
O3184      C3191   1.270       .  A
O3185      C3192   1.271       .  A
O3186      C3193   1.273       .  A
C3188      C3215   1.440       .  S
C3191      C3213   1.440       .  S
Zn3194     O3199   2.028       .  S
Zn3194     O3203   1.973       .  S
Zn3194     O3210   2.006       .  S
Zn3194     O3198   1.947       .  S
Zn3195     O3200   2.008       .  S
Zn3195     O3202   2.015       .  S
Zn3195     O3206   1.975       .  S
Zn3195     O3198   1.957       .  S
Zn3196     O3201   1.996       .  S
Zn3196     O3204   2.043       .  S
Zn3196     O3207   2.048       .  S
Zn3196     O3198   1.964       .  S
Zn3197     O3205   2.037       .  S
Zn3197     O3208   1.997       .  S
Zn3197     O3209   2.050       .  S
Zn3197     O3198   1.969       .  S
O3199      C3211   1.273       .  A
O3200      C3212   1.272       .  A
O3201      C3213   1.270       .  A
O3202      C3211   1.271       .  A
O3203      C3213   1.267       .  A
O3204      C3212   1.276       .  A
O3205      C3214   1.276       .  A
O3206      C3215   1.268       .  A
O3207      C3214   1.278       .  A
O3208      C3215   1.271       .  A
O3209      C3216   1.276       .  A
O3210      C3216   1.272       .  A
C3217      C3218   1.407       .  A
C3217      C3222   1.426       .  A
C3218      C3219   1.403       .  A
C3218      H3227   1.081       .  S
C3219      C3220   1.426       .  A
C3219      S3223   1.810       .  S
C3220      C3221   1.408       .  A
C3221      C3222   1.403       .  A
C3221      H3228   1.081       .  S
C3222      S3224   1.810       .  S
S3223      H3226   1.398       .  S
S3224      H3225   1.398       .  S
C3229      C3230   1.407       .  A
C3229      C3234   1.425       .  A
C3230      C3231   1.403       .  A
C3230      H3239   1.081       .  S
C3231      C3232   1.425       .  A
C3231      S3235   1.809       .  S
C3232      C3233   1.409       .  A
C3233      C3234   1.404       .  A
C3233      H3240   1.080       .  S
C3234      S3236   1.811       .  S
S3235      H3238   1.398       .  S
S3236      H3237   1.397       .  S
C3241      C3242   1.409       .  A
C3241      C3246   1.428       .  A
C3242      C3243   1.400       .  A
C3242      H3251   1.082       .  S
C3243      C3244   1.422       .  A
C3243      S3247   1.806       .  S
C3244      C3245   1.407       .  A
C3245      C3246   1.406       .  A
C3245      H3252   1.080       .  S
C3246      S3248   1.811       .  S
S3247      H3250   1.401       .  S
S3248      H3249   1.395       .  S
C3253      C3254   1.406       .  A
C3253      C3258   1.422       .  A
C3254      C3255   1.402       .  A
C3254      H3263   1.080       .  S
C3255      C3256   1.429       .  A
C3255      S3259   1.815       .  S
C3256      C3257   1.409       .  A
C3257      C3258   1.403       .  A
C3257      H3264   1.080       .  S
C3258      S3260   1.806       .  S
S3259      H3262   1.393       .  S
S3260      H3261   1.401       .  S
C3265      C3266   1.401       .  A
C3265      C3270   1.409       .  A
C3266      C3267   1.397       .  A
C3267      C3268   1.410       .  A
C3267      S3271   1.803       .  S
C3268      C3269   1.400       .  A
C3269      C3270   1.400       .  A
C3269      H3276   1.082       .  S
C3270      S3272   1.806       .  S
S3271      H3274   1.407       .  S
C3277      C3278   1.402       .  A
C3278      C3279   1.399       .  A
C3278      H3287   1.083       .  S
C3279      S3283   1.802       .  S
C3280      C3281   1.402       .  A
C3281      C3282   1.399       .  A
C3282      S3284   1.803       .  S
S3284      H3285   1.406       .  S
C3289      C3290   1.405       .  A
C3289      C3294   1.421       .  A
C3290      C3291   1.403       .  A
C3290      H3299   1.082       .  S
C3291      C3292   1.430       .  A
C3291      S3295   1.812       .  S
C3292      C3293   1.410       .  A
C3293      C3294   1.403       .  A
C3293      H3300   1.082       .  S
C3294      S3296   1.805       .  S
S3295      H3298   1.394       .  S
S3296      H3297   1.406       .  S
C3301      C3302   1.406       .  A
C3301      C3306   1.419       .  A
C3302      C3303   1.403       .  A
C3302      H3311   1.082       .  S
C3303      C3304   1.430       .  A
C3303      S3307   1.813       .  S
C3304      C3305   1.413       .  A
C3305      C3306   1.402       .  A
C3305      H3312   1.082       .  S
C3306      S3308   1.806       .  S
S3307      H3310   1.392       .  S
S3308      H3309   1.405       .  S
C3313      C3314   1.406       .  A
C3313      C3318   1.411       .  A
C3314      C3315   1.404       .  A
C3314      H3323   1.083       .  S
C3315      C3316   1.411       .  A
C3316      C3317   1.403       .  A
C3317      C3318   1.398       .  A
C3317      H3324   1.083       .  S
C3318      S3320   1.802       .  S
S3319      H3322   1.406       .  S
S3320      H3321   1.406       .  S
C3325      C3330   1.411   1_554  A
C3326      C3327   1.396       .  A
C3326      H3335   1.084       .  S
C3327      C3328   1.412       .  A
C3327      S3331   1.802       .  S
C3329      C3330   1.404       .  A
C3329      H3336   1.083       .  S
S3331      H3334   1.407       .  S
S3332      H3333   1.406       .  S
C3337      C3338   1.410       .  A
C3337      C3342   1.422       .  A
C3338      C3339   1.414       .  A
C3338      H3347   1.081       .  S
C3339      C3340   1.422       .  A
C3339      S3343   1.808       .  S
C3340      C3341   1.409       .  A
C3341      C3342   1.400       .  A
C3341      H3348   1.082       .  S
C3342      S3344   1.806       .  S
S3343      H3346   1.406   1_655  S
S3344      H3345   1.404       .  S
C3349      C3350   1.410       .  A
C3349      C3354   1.427       .  A
C3350      C3351   1.402       .  A
C3350      H3359   1.082       .  S
C3351      C3352   1.420       .  A
C3351      S3355   1.804       .  S
C3352      C3353   1.406       .  A
C3353      C3354   1.403       .  A
C3353      H3360   1.083       .  S
C3354      S3356   1.810       .  S
S3355      H3358   1.406       .  S
S3356      H3357   1.396       .  S
