geometry optimzed in LAMMPS
_audit_creation_date              2020-11-30 
_audit_creation_method            'lammps2cif' 
_symmetry_space_group_name_H-M    'P1' 
_symmetry_Int_Tables_number       1 
_symmetry_cell_setting            triclinic 
loop_ 
_symmetry_equiv_pos_as_xyz 
  x,y,z 
_cell_length_a                    26.69156196 
_cell_length_b                    27.311951672251077 
_cell_length_c                    32.797419899012446 
_cell_angle_alpha                 89.06057809015896 
_cell_angle_beta                  84.28406856319985 
_cell_angle_gamma                 89.97358632944918 
loop_ 
_atom_site_label 
_atom_site_type_symbol 
_atom_site_fract_x 
_atom_site_fract_y 
_atom_site_fract_z 
_atom_site_charge 
O1          O  0.97276861  0.07810203  0.01620960    -0.71900
O2          O  0.97038315  0.93261796  0.03851687    -0.72900
O3          O  0.04616918  0.00445929  0.02869228    -0.61500
O4          O  0.39601868  0.00500633  0.04399979    -0.69900
O5          O  0.45049855  0.98624666  0.46311919    -0.69500
O6          O  0.10534893  0.99998037  0.45288051    -0.60700
O7          O  0.52788720  0.91653199  0.46914484    -0.73300
O8          O  0.52030215  0.06242909  0.44673575    -0.72000
Cu9        Cu  0.97166958  0.00558607  0.02997850     1.04600
Cu10       Cu  0.52479217  0.98906541  0.45521917     1.04300
C11         C  0.02940594  0.10006641  0.48485123     0.94300
C12         C  0.46955862  0.90637404  0.02170348     0.93400
C13         C  0.07442768  0.99464047  0.99620203     0.85600
C14         C  0.37693168  0.00140732  0.00996392     0.91800
O15         O  0.99238075  0.06731062  0.30930778    -0.71900
O16         O  0.00621770  0.92024026  0.30615934    -0.72900
O17         O  0.07325697  0.00115818  0.30902290    -0.61500
O18         O  0.42782749  0.98597711  0.29596930    -0.69900
O19         O  0.43219496  0.99936380  0.22873166    -0.69500
O20         O  0.08179913  0.00751495  0.24103969    -0.60700
O21         O  0.01962933  0.92398019  0.23832933    -0.73300
O22         O  0.50210983  0.07769220  0.23481377    -0.72000
Cu23       Cu  0.99838914  0.99380911  0.31021702     1.04600
Cu24       Cu  0.50791469  0.00597061  0.22391616     1.04300
C25         C  0.99389720  0.09203259  0.27578648     0.94300
C26         C  0.01670222  0.89904489  0.27187577     0.93400
C27         C  0.10080681  0.00732340  0.27519855     0.85600
C28         C  0.40638561  0.99046531  0.26308529     0.91800
O29         O  0.20463466  0.98877011  0.45885419    -0.71900
O30         O  0.35183977  0.99032543  0.46423759    -0.72900
O31         O  0.28017428  0.91544116  0.46540436    -0.61500
O32         O  0.27731851  0.06328000  0.45898863    -0.69900
O33         O  0.21663160  0.06966109  0.03470617    -0.69500
O34         O  0.22297795  0.92173919  0.03993103    -0.60700
O35         O  0.29337072  0.99917715  0.04181824    -0.73300
O36         O  0.14551460  0.99340588  0.03343384    -0.72000
Cu37       Cu  0.27892203  0.98928601  0.45955345     1.04600
Cu38       Cu  0.21889254  0.99586889  0.03994828     1.04300
C39         C  0.12870942  0.99204679  0.99836795     0.94300
C40         C  0.32286247  0.99921680  0.00874323     0.93400
C41         C  0.23318728  0.89759719  0.00701452     0.85600
C42         C  0.22380930  0.09085213  0.99953901     0.91800
O43         O  0.18182453  0.01383192  0.24022985    -0.71900
O44         O  0.32992131  0.99239670  0.23233976    -0.72900
O45         O  0.24194848  0.93091362  0.23213704    -0.61500
O46         O  0.26904567  0.07474798  0.24132682    -0.69900
O47         O  0.26192579  0.06758170  0.30928633    -0.69500
O48         O  0.23596274  0.92474568  0.30013489    -0.60700
O49         O  0.32528118  0.98556043  0.30021639    -0.73300
O50         O  0.17580142  0.00633925  0.30816678    -0.72000
Cu51       Cu  0.25596951  0.00326807  0.23414623     1.04600
Cu52       Cu  0.24995776  0.99569750  0.30683536     1.04300
C53         C  0.15530028  0.01058351  0.27476359     0.94300
C54         C  0.35130666  0.98833914  0.26528042     0.93400
C55         C  0.23103820  0.90626124  0.26529314     0.85600
C56         C  0.27051825  0.09344465  0.27666444     0.91800
N57         N  0.45282857  0.57076031  0.45141465    -0.35600
N58         N  0.48260074  0.60166377  0.04995311    -0.56200
N59         N  0.45620800  0.70596305  0.05007149    -0.35600
N60         N  0.47930709  0.68969038  0.46405815    -0.56200
C61         C  0.42794371  0.55836733  0.48774521     0.28000
C62         C  0.42803163  0.60913938  0.43642254     0.28000
C63         C  0.45776302  0.69711618  0.09079234     0.28000
C64         C  0.43313940  0.74985437  0.04631798     0.28000
C65         C  0.49143791  0.55296976  0.04455854     0.36600
C66         C  0.49443655  0.61267462  0.08781170     0.36600
C67         C  0.48550666  0.67542076  0.42462723     0.36600
C68         C  0.50922747  0.72908611  0.46645011     0.36600
C69         C  0.38668319  0.58897684  0.49596295    -0.20900
C70         C  0.38684509  0.62121701  0.46328249    -0.20900
C71         C  0.43420368  0.73513457  0.11279548    -0.20900
C72         C  0.41917420  0.76847182  0.08479126    -0.20900
C73         C  0.50769336  0.53339154  0.08007539    -0.21900
C74         C  0.51271317  0.57119076  0.10600724    -0.21900
C75         C  0.52312346  0.70296736  0.40286509    -0.21900
C76         C  0.53699601  0.73810692  0.42913125    -0.21900
C77         C  0.48217381  0.52858234  0.00774661    -0.17300
C78         C  0.45203426  0.64235051  0.40850571    -0.17300
C79         C  0.42773049  0.77574458  0.00918108    -0.17300
C80         C  0.48087532  0.65648634  0.10896283    -0.17300
H81         H  0.36149696  0.59005446  0.52394520     0.15600
H82         H  0.36315391  0.65315031  0.46158998     0.15600
H83         H  0.42852929  0.73885107  0.14571664     0.15600
H84         H  0.40009494  0.80272483  0.09189005     0.15600
H85         H  0.51023454  0.49609290  0.08983429     0.13900
H86         H  0.52487584  0.56709159  0.13624252     0.13900
H87         H  0.53720631  0.69993665  0.37093317     0.13900
H88         H  0.56321732  0.76782068  0.42138182     0.13900
H89         H  0.48814619  0.55774067  0.43980779     0.27200
H90         H  0.47433009  0.68595233  0.02618483     0.27200
N91         N  0.47384359  0.58894023  0.20363352    -0.35600
N92         N  0.43249937  0.59704779  0.30238894    -0.56200
N93         N  0.47482928  0.69310113  0.30387025    -0.35600
N94         N  0.49684334  0.69838827  0.21601204    -0.56200
C95         C  0.43449857  0.56426034  0.22239398     0.28000
C96         C  0.45446542  0.62084349  0.17765457     0.28000
C97         C  0.44885985  0.68745696  0.34135467     0.28000
C98         C  0.48082496  0.74192627  0.29681971     0.28000
C99         C  0.42322977  0.55009582  0.29357272     0.36600
C100        C  0.42866918  0.59996969  0.34347550     0.36600
C101        C  0.50838554  0.69092733  0.17556599     0.36600
C102        C  0.52070371  0.73953756  0.22522671     0.36600
C103        C  0.38984385  0.58303943  0.21080569    -0.20900
C104        C  0.40264063  0.61746812  0.18039556    -0.20900
C105        C  0.43674224  0.73295586  0.35754285    -0.20900
C106        C  0.45709630  0.76730805  0.32965322    -0.20900
C107        C  0.40790572  0.52376668  0.32872888    -0.21900
C108        C  0.41153496  0.55522560  0.36054327    -0.21900
C109        C  0.54146041  0.72644465  0.15880262    -0.21900
C110        C  0.54992701  0.75710169  0.19057556    -0.21900
C111        C  0.43778196  0.53132214  0.25471445    -0.17300
C112        C  0.48317847  0.65568233  0.15443812    -0.17300
C113        C  0.50960218  0.76417255  0.26274695    -0.17300
C114        C  0.44275416  0.64264571  0.36375370    -0.17300
H115        H  0.35242478  0.57343881  0.22396484     0.15600
H116        H  0.37711239  0.64018404  0.16473498     0.15600
H117        H  0.41794922  0.74041074  0.38753821     0.15600
H118        H  0.45547711  0.80654755  0.33364699     0.15600
H119        H  0.39737346  0.48551893  0.33118121     0.13900
H120        H  0.40174644  0.54494192  0.39197060     0.13900
H121        H  0.55627712  0.73075922  0.12701163     0.13900
H122        H  0.57298299  0.78979078  0.18791666     0.13900
H123        H  0.51160483  0.58513109  0.20902009     0.27200
H124        H  0.49327694  0.66535543  0.28682589     0.27200
N125        N  0.24646248  0.58365756  0.45092866    -0.35600
N126        N  0.26602330  0.68491568  0.44385135    -0.56200
N127        N  0.25333615  0.69558528  0.03175436    -0.35600
N128        N  0.25034177  0.59262250  0.03725314    -0.56200
C129        C  0.22472154  0.59402117  0.41619414     0.28000
C130        C  0.22509642  0.54253043  0.46733315     0.28000
C131        C  0.27306417  0.73967385  0.02019645     0.28000
C132        C  0.26388315  0.68673277  0.07073923     0.28000
C133        C  0.27009248  0.67107919  0.40414023     0.36600
C134        C  0.29011699  0.72816552  0.44521641     0.36600
C135        C  0.23970698  0.54525579  0.03243612     0.36600
C136        C  0.23094068  0.60366266  0.07548883     0.36600
C137        C  0.18827912  0.55866755  0.41126544    -0.20900
C138        C  0.18922266  0.52560643  0.44341171    -0.20900
C139        C  0.29719802  0.75885469  0.05194337    -0.20900
C140        C  0.29199057  0.72503511  0.08376555    -0.20900
C141        C  0.30013968  0.70422520  0.38046063    -0.21900
C142        C  0.31129063  0.74126321  0.40620704    -0.21900
C143        C  0.21108838  0.52634802  0.06661164    -0.21900
C144        C  0.20490405  0.56385496  0.09394155    -0.21900
C145        C  0.23916469  0.63408287  0.38944902    -0.17300
C146        C  0.25323282  0.52032386  0.99622238    -0.17300
C147        C  0.24440730  0.64650951  0.09504484    -0.17300
C148        C  0.26891995  0.76349850  0.98204194    -0.17300
H149        H  0.16267043  0.55662743  0.38790700     0.15600
H150        H  0.16558379  0.49353299  0.44914785     0.15600
H151        H  0.31681966  0.79351417  0.05196824     0.15600
H152        H  0.30623397  0.72871118  0.11332909     0.15600
H153        H  0.30993842  0.70352412  0.34764434     0.13900
H154        H  0.33282541  0.77378388  0.39699564     0.13900
H155        H  0.19540657  0.48987599  0.07091859     0.13900
H156        H  0.18505442  0.56156751  0.12433246     0.13900
H157        H  0.27731532  0.60073140  0.46181945     0.27200
H158        H  0.22839553  0.67559102  0.01602535     0.27200
N159        N  0.23764948  0.59169394  0.20064583    -0.35600
N160        N  0.22786800  0.69826505  0.20152644    -0.56200
N161        N  0.20920733  0.69630076  0.29085730    -0.35600
N162        N  0.24019004  0.56815141  0.30691975    -0.56200
C163        C  0.25771337  0.60650054  0.16302560     0.28000
C164        C  0.25594491  0.54642315  0.20855025     0.28000
C165        C  0.21131878  0.74535200  0.28467992     0.28000
C166        C  0.20834315  0.68717984  0.33155897     0.28000
C167        C  0.22059882  0.68894285  0.16226907     0.36600
C168        C  0.21140477  0.74424637  0.20886922     0.36600
C169        C  0.21634927  0.54442133  0.27827150     0.36600
C170        C  0.20576478  0.59959161  0.32484813     0.36600
C171        C  0.29104457  0.57144158  0.14699028    -0.20900
C172        C  0.28989079  0.53359064  0.17523559    -0.20900
C173        C  0.20945202  0.76754315  0.32275928    -0.20900
C174        C  0.20474655  0.73093561  0.35214328    -0.20900
C175        C  0.19768606  0.72876819  0.14500718    -0.21900
C176        C  0.19347238  0.76446350  0.17421258    -0.21900
C177        C  0.16728926  0.56055114  0.27810541    -0.21900
C178        C  0.16059701  0.59570063  0.30748016    -0.21900
C179        C  0.24089966  0.64760529  0.14115733    -0.17300
C180        C  0.24178585  0.51885687  0.24563369    -0.17300
C181        C  0.21786059  0.64018297  0.34820936    -0.17300
C182        C  0.21531437  0.76940120  0.24554288    -0.17300
H183        H  0.31335190  0.57258861  0.11755270     0.15600
H184        H  0.31396019  0.50221733  0.17083057     0.15600
H185        H  0.21241507  0.80565943  0.33000463     0.15600
H186        H  0.20210375  0.73630495  0.38487853     0.15600
H187        H  0.18682093  0.73256144  0.11420644     0.13900
H188        H  0.17826247  0.80086216  0.17070251     0.13900
H189        H  0.14104653  0.55115210  0.25636267     0.13900
H190        H  0.12766694  0.61863313  0.31342779     0.13900
H191        H  0.20925478  0.61005940  0.21823960     0.27200
H192        H  0.21272858  0.66952869  0.26870394     0.27200
N193        N  0.00463365  0.40426215  0.02862995    -0.35600
N194        N  0.03441766  0.41487462  0.43573442    -0.56200
N195        N  0.04876916  0.30987015  0.43637556    -0.35600
N196        N  0.97196841  0.30323390  0.02935539    -0.56200
C197        C  0.03352376  0.44469690  0.02005508     0.28000
C198        C  0.01185768  0.38864728  0.06699560     0.28000
C199        C  0.05663794  0.32201351  0.39616676     0.28000
C200        C  0.06912705  0.26517610  0.44151026     0.28000
C201        C  0.00978509  0.45559676  0.44921733     0.36600
C202        C  0.01407603  0.40111944  0.40175131     0.36600
C203        C  0.96029223  0.31383756  0.06919642     0.36600
C204        C  0.95153744  0.25910224  0.02360238     0.36600
C205        C  0.06102040  0.45312923  0.05305159    -0.20900
C206        C  0.04719993  0.41808228  0.08251348    -0.20900
C207        C  0.08407594  0.28541468  0.37544358    -0.18900
C208        C  0.09159798  0.24921672  0.40407764    -0.20900
C209        C  0.97265518  0.46701434  0.42368143    -0.21900
C210        C  0.97605312  0.43285553  0.39324711    -0.21900
C211        C  0.92962693  0.27776326  0.08830451    -0.21900
C212        C  0.92483869  0.24252014  0.05968630    -0.21900
C213        C  0.02310422  0.48105848  0.48395852    -0.17300
C214        C  0.98431718  0.35096288  0.08936361    -0.17300
C215        C  0.06003270  0.23630549  0.47766936    -0.17300
C216        C  0.03160167  0.36106198  0.37799587    -0.17300
H217        H  0.09066405  0.47853719  0.05607723     0.15600
H218        H  0.06200204  0.41446037  0.11196281     0.15600
H219        H  0.09476641  0.28362620  0.34279568     0.15600
H220        H  0.10936563  0.21422092  0.39757529     0.15600
H221        H  0.94452656  0.49530082  0.42654134     0.13900
H222        H  0.95254283  0.43090843  0.36829364     0.13900
H223        H  0.91501660  0.27548460  0.12020681     0.13900
H224        H  0.90435228  0.20859321  0.06542883     0.13900
H225        H  0.97726880  0.39155484  0.01074782     0.27200
H226        H  0.02340596  0.32734235  0.45757569     0.27200
N227        N  0.00212404  0.40826606  0.27535829    -0.35600
N228        N  0.98649415  0.40621772  0.19156969    -0.56200
N229        N  0.98192369  0.29908344  0.19746811    -0.35600
N230        N  0.00135322  0.30213466  0.28147164    -0.56200
C231        C  0.01275949  0.45453023  0.26219325     0.28000
C232        C  0.02855488  0.39910533  0.30769038     0.28000
C233        C  0.99577177  0.30761824  0.15717499     0.28000
C234        C  0.99430649  0.25228773  0.20605774     0.28000
C235        C  0.97014542  0.45219112  0.19988610     0.36600
C236        C  0.96800369  0.39316085  0.15657384     0.36600
C237        C  0.99696552  0.31571098  0.32094258     0.36600
C238        C  0.97982770  0.25754727  0.28052823     0.36600
C239        C  0.04783711  0.47466420  0.28560138    -0.20900
C240        C  0.05802088  0.43948939  0.31430355    -0.20900
C241        C  0.01856015  0.26598865  0.14013783    -0.20900
C242        C  0.01672504  0.23068410  0.17089104    -0.20900
C243        C  0.93971020  0.46759643  0.17019481    -0.21900
C244        C  0.93925933  0.43055762  0.14233590    -0.21900
C245        C  0.97144693  0.28017157  0.34544364    -0.21900
C246        C  0.95991346  0.24342535  0.31963686    -0.21900
C247        C  0.98657822  0.47954368  0.23260502    -0.17300
C248        C  0.01980997  0.35817946  0.33441875    -0.17300
C249        C  0.98359845  0.22901815  0.24478177    -0.17300
C250        C  0.98240095  0.35017483  0.13539764    -0.17300
H251        H  0.06304141  0.51138891  0.28322968     0.15600
H252        H  0.08226949  0.44403683  0.33852597     0.15600
H253        H  0.03336334  0.26097461  0.10855406     0.15600
H254        H  0.03064705  0.19358029  0.16776460     0.15600
H255        H  0.91916071  0.50106835  0.16809844     0.13900
H256        H  0.91999906  0.43099940  0.11480663     0.13900
H257        H  0.96222702  0.28068154  0.37832446     0.13900
H258        H  0.93961748  0.21014465  0.32881744     0.13900
H259        H  0.97265542  0.38700509  0.26665495     0.27200
H260        H  0.95992678  0.32200339  0.21709948     0.27200
N261        N  0.26580125  0.40111407  0.04904395    -0.35600
N262        N  0.25120488  0.39450939  0.46180866    -0.56200
N263        N  0.24882958  0.29154319  0.46653195    -0.35600
N264        N  0.24934622  0.29891058  0.05593088    -0.56200
C265        C  0.28119450  0.44538283  0.03423977     0.28000
C266        C  0.28889974  0.39203818  0.08347786     0.28000
C267        C  0.24018732  0.29950231  0.42684821     0.28000
C268        C  0.23189009  0.24617951  0.47737513     0.28000
C269        C  0.26234822  0.44173211  0.46741201     0.36600
C270        C  0.26835886  0.38467650  0.42262094     0.36600
C271        C  0.25160070  0.31018398  0.09589492     0.36600
C272        C  0.22535490  0.25541357  0.05508599     0.36600
C273        C  0.31443411  0.46542384  0.05908216    -0.20900
C274        C  0.32020591  0.43137232  0.08975574    -0.20900
C275        C  0.21668236  0.25903120  0.41249362    -0.20900
C276        C  0.21151414  0.22530668  0.44433876    -0.20900
C277        C  0.28849785  0.46159355  0.43234710    -0.21900
C278        C  0.29254301  0.42524746  0.40395282    -0.21900
C279        C  0.22693098  0.27440291  0.12065754    -0.21900
C280        C  0.21143475  0.23927076  0.09501229    -0.21900
C281        C  0.26637623  0.46705948  0.99805079    -0.17300
C282        C  0.27996938  0.35001279  0.10952067    -0.17300
C283        C  0.21668608  0.22972574  0.01897548    -0.17300
C284        C  0.25721589  0.34103107  0.40292885    -0.17300
H285        H  0.33352057  0.50023703  0.05488826     0.15600
H286        H  0.34515827  0.43564426  0.11339632     0.15600
H287        H  0.20529824  0.25401982  0.38207379     0.15600
H288        H  0.19453260  0.18944168  0.44328876     0.15600
H289        H  0.30416002  0.49803672  0.42792012     0.13900
H290        H  0.31064312  0.42862277  0.37301921     0.13900
H291        H  0.22169205  0.27310818  0.15380619     0.13900
H292        H  0.19139720  0.20618587  0.10509699     0.13900
H293        H  0.23728978  0.38111138  0.03753015     0.27200
H294        H  0.27089656  0.31313911  0.48354782     0.27200
N295        N  0.27022152  0.41712102  0.19011014    -0.35600
N296        N  0.31855206  0.29309643  0.20724618    -0.56200
N297        N  0.29234787  0.29186347  0.29542164    -0.35600
N298        N  0.26291573  0.39433866  0.29709890    -0.56200
C299        C  0.30796985  0.38688476  0.17603777     0.28000
C300        C  0.28661140  0.44090205  0.22236467     0.28000
C301        C  0.31617948  0.24844373  0.28925672     0.28000
C302        C  0.29138427  0.30170281  0.33598617     0.28000
C303        C  0.31852984  0.30098148  0.16644705     0.36600
C304        C  0.32480819  0.24489916  0.21314299     0.36600
C305        C  0.24044498  0.43731218  0.28862392     0.36600
C306        C  0.24237298  0.37830364  0.33411421     0.36600
C307        C  0.34866583  0.39282357  0.19892634    -0.20900
C308        C  0.33504531  0.42676419  0.22825880    -0.20900
C309        C  0.33085330  0.23077836  0.32600522    -0.20900
C310        C  0.31698704  0.26510749  0.35514073    -0.20900
C311        C  0.32864491  0.25780712  0.14578961    -0.21900
C312        C  0.33204734  0.22195303  0.17545762    -0.21900
C313        C  0.20325084  0.44735622  0.32019233    -0.21900
C314        C  0.20483723  0.41018512  0.34901080    -0.21900
C315        C  0.30277122  0.34625633  0.15042679    -0.17300
C316        C  0.25509809  0.46523261  0.25213928    -0.17300
C317        C  0.26294008  0.33966800  0.35652760    -0.17300
C318        C  0.32082103  0.22196893  0.25220045    -0.17300
H319        H  0.38307754  0.37162045  0.19669510     0.15600
H320        H  0.35646395  0.43704360  0.25314248     0.15600
H321        H  0.34890046  0.19613785  0.33137571     0.15600
H322        H  0.32315447  0.26196310  0.38716500     0.15600
H323        H  0.33111503  0.25226382  0.11306868     0.13900
H324        H  0.33781443  0.18343888  0.16956955     0.13900
H325        H  0.17664484  0.47704979  0.32285761     0.13900
H326        H  0.18172331  0.40745747  0.37801905     0.13900
H327        H  0.23351331  0.41709029  0.18164312     0.27200
H328        H  0.27225030  0.31017110  0.27419942     0.27200
C329        C  0.28167194  0.14549461  0.28003651    -0.15400
C330        C  0.31705693  0.16776577  0.25422656    -0.30600
H331        H  0.25943285  0.16596126  0.30350283     0.13600
H332        H  0.33881996  0.14615180  0.23129358     0.14200
C333        C  0.20907122  0.85714732  0.26446903    -0.15400
C334        C  0.23001617  0.82195476  0.24078852    -0.30600
H335        H  0.17634485  0.84923921  0.28589918     0.13600
H336        H  0.26098352  0.83130971  0.21789577     0.14200
C337        C  0.20593715  0.17590061  0.02306188    -0.15400
C338        C  0.22778620  0.14445917  0.99556325    -0.30600
H339        H  0.21655331  0.14840211  0.54340633     0.13600
H340        H  0.25100028  0.15844403  0.96882384     0.14200
C341        C  0.26711009  0.81826245  0.98030925    -0.15400
C342        C  0.23991458  0.84396669  0.00967536    -0.30600
H343        H  0.31734430  0.82641754  0.44907553     0.13600
H344        H  0.22212433  0.82519383  0.03678572     0.14200
C345        C  0.97935679  0.17430948  0.24634047    -0.15400
C346        C  0.99312561  0.14600228  0.27733889    -0.30600
H347        H  0.48936347  0.16658649  0.21646245     0.13600
H348        H  0.00705532  0.16227053  0.30392931     0.14200
C349        C  0.51194170  0.85090204  0.23905753    -0.15400
C350        C  0.52307015  0.81680608  0.26664390    -0.30600
H351        H  0.49815112  0.83986313  0.21054023     0.13600
H352        H  0.06921857  0.84367060  0.21569988     0.14200
C353        C  0.06475100  0.18242832  0.47443592    -0.15400
C354        C  0.02592893  0.15318156  0.48691138    -0.30600
H355        H  0.09952312  0.16681436  0.46023007     0.13600
H356        H  0.49633041  0.16514602  0.96457310     0.14200
C357        C  0.42916295  0.82979061  0.00890596    -0.15400
C358        C  0.46347908  0.85389494  0.02803702    -0.30600
H359        H  0.40544666  0.85010654  0.98951752     0.13600
H360        H  0.03662461  0.83751230  0.45185211     0.14200
O361        O  0.02126213  0.07479555  0.51790509    -0.71900
O362        O  0.00988128  0.92942726  0.51205300    -0.72900
O363        O  0.09012439  0.99526567  0.52070543    -0.61500
O364        O  0.44675226  0.99973903  0.52999441    -0.69900
O365        O  0.40454263  0.99882899  0.97611825    -0.69500
O366        O  0.05590479  0.98780237  0.96227445    -0.60700
O367        O  0.47275811  0.92399174  0.98524244    -0.73300
O368        O  0.48201636  0.06822622  0.96621715    -0.72000
Cu369      Cu  0.01600479  0.00191075  0.51756993     1.04600
Cu370      Cu  0.47833704  0.99549073  0.97327968     1.04300
C371        C  0.98071979  0.09426300  0.97926793     0.94300
C372        C  0.52713195  0.90057659  0.50617243     0.93400
C373        C  0.12088203  0.99518006  0.48834570     0.85600
C374        C  0.42502839  0.99273028  0.49759627     0.91800
O375        O  0.03287334  0.07112278  0.79024837    -0.71900
O376        O  0.03328333  0.92433650  0.80311070    -0.72900
O377        O  0.10831012  0.99909148  0.79659276    -0.61500
O378        O  0.45903513  0.99312361  0.78991976    -0.69900
O379        O  0.46952235  0.97436110  0.72393280    -0.69500
O380        O  0.11713262  0.99333114  0.72871137    -0.60700
O381        O  0.04373471  0.91751317  0.73545487    -0.73300
O382        O  0.53748411  0.05434997  0.70991963    -0.72000
Cu383      Cu  0.03299505  0.99789322  0.79885725     1.04600
Cu384      Cu  0.54441506  0.98192458  0.72240635     1.04300
C385        C  0.03961217  0.09198382  0.75494924     0.94300
C386        C  0.03836435  0.89770992  0.77135674     0.93400
C387        C  0.13612726  0.99705568  0.76262141     0.85600
C388        C  0.44088628  0.98166005  0.75683093     0.91800
O389        O  0.15859404  0.98968522  0.96556472    -0.71900
O390        O  0.30597429  0.99660301  0.97382465    -0.72900
O391        O  0.23762226  0.91951589  0.97215475    -0.61500
O392        O  0.23041448  0.06588326  0.96689989    -0.69900
O393        O  0.26337790  0.06610939  0.52680389    -0.69500
O394        O  0.26846706  0.91968461  0.53324944    -0.60700
O395        O  0.34186615  0.99516097  0.53213250    -0.73300
O396        O  0.19169399  0.99105368  0.52679606    -0.72000
Cu397      Cu  0.23334961  0.99273431  0.96730581     1.04600
Cu398      Cu  0.26604393  0.99299905  0.53220451     1.04300
C399        C  0.17484349  0.99094586  0.49164279     0.94300
C400        C  0.37032927  0.99272497  0.49846434     0.93400
C401        C  0.27522640  0.89446497  0.50074109     0.85600
C402        C  0.26857939  0.08776557  0.49184521     0.91800
O403        O  0.21779548  0.00303310  0.72818022    -0.71900
O404        O  0.36689578  0.98709764  0.72307731    -0.72900
O405        O  0.28361317  0.92415900  0.71458671    -0.61500
O406        O  0.30113784  0.06691029  0.73591479    -0.69900
O407        O  0.29198502  0.05308375  0.80316994    -0.69500
O408        O  0.27404690  0.90949789  0.78176835    -0.60700
O409        O  0.35887291  0.97364095  0.79045269    -0.73300
O410        O  0.21018010  0.98932706  0.79555014    -0.72000
Cu411      Cu  0.29271658  0.99587116  0.72311866     1.04600
Cu412      Cu  0.28389713  0.98067679  0.79510921     1.04300
C413        C  0.19056396  0.99716844  0.76223021     0.94300
C414        C  0.38637761  0.97968049  0.75659004     0.93400
C415        C  0.27330093  0.89489276  0.74492677     0.85600
C416        C  0.29934179  0.08259282  0.77254578     0.91800
N417        N  0.46757628  0.57715228  0.94694336    -0.35600
N418        N  0.45731422  0.59719644  0.56018580    -0.56200
N419        N  0.49144360  0.69594582  0.55160683    -0.35600
N420        N  0.42576942  0.70406917  0.96738551    -0.56200
C421        C  0.45151175  0.55497935  0.98313379     0.28000
C422        C  0.43104391  0.60941756  0.93943418     0.28000
C423        C  0.47452735  0.69271152  0.59182142     0.28000
C424        C  0.48678926  0.74314118  0.53940922     0.28000
C425        C  0.45104535  0.54850964  0.55538818     0.36600
C426        C  0.47104177  0.60316789  0.59832336     0.36600
C427        C  0.42474801  0.69529050  0.92712475     0.36600
C428        C  0.42314494  0.75258276  0.97177485     0.36600
C429        C  0.40426942  0.57174119  0.99766193    -0.20900
C430        C  0.39102578  0.60579837  0.96982511    -0.20900
C431        C  0.45771483  0.73821318  0.60533240    -0.20900
C432        C  0.46518341  0.77010828  0.57211599    -0.20900
C433        C  0.45641287  0.52416207  0.59148916    -0.21900
C434        C  0.47325881  0.55757964  0.61741899    -0.21900
C435        C  0.41818553  0.73851254  0.90574542    -0.21900
C436        C  0.41759003  0.77518851  0.93414445    -0.21900
C437        C  0.44766330  0.52738419  0.51671304    -0.17300
C438        C  0.43689225  0.64875288  0.91107204    -0.17300
C439        C  0.50412498  0.76117706  0.49969707    -0.17300
C440        C  0.47671294  0.64972227  0.61630847    -0.17300
H441        H  0.38376909  0.56337367  0.02703411     0.15600
H442        H  0.35780720  0.62867864  0.97324948     0.15600
H443        H  0.44172796  0.74735739  0.63588261     0.15600
H444        H  0.45533334  0.80851649  0.57220884     0.15600
H445        H  0.45124884  0.48584811  0.59765717     0.13900
H446        H  0.48619331  0.54795305  0.64647681     0.13900
H447        H  0.41619695  0.74335421  0.87313719     0.13900
H448        H  0.41488691  0.81390426  0.92731920     0.13900
H449        H  0.50358003  0.57497721  0.93134015     0.27200
H450        H  0.51003607  0.66841775  0.53432829     0.27200
N451        N  0.48020206  0.59053547  0.71443254    -0.35600
N452        N  0.46321209  0.58977794  0.80713299    -0.56200
N453        N  0.49610492  0.69066127  0.80699603    -0.35600
N454        N  0.51211343  0.69381639  0.71932394    -0.56200
C455        C  0.44713476  0.55549879  0.72816731     0.28000
C456        C  0.45638185  0.61971778  0.68894347     0.28000
C457        C  0.49155266  0.67812224  0.84747333     0.28000
C458        C  0.52742002  0.73020278  0.80157076     0.28000
C459        C  0.44697459  0.54442614  0.79914281     0.36600
C460        C  0.44365140  0.60024567  0.84544751     0.36600
C461        C  0.51420952  0.68661050  0.67853940     0.36600
C462        C  0.53993087  0.73363777  0.72506921     0.36600
C463        C  0.40026219  0.56612803  0.71560317    -0.20900
C464        C  0.40679301  0.60528159  0.68854681    -0.20900
C465        C  0.52160451  0.70909106  0.86773727    -0.20900
C466        C  0.54345291  0.74214108  0.83906225    -0.20900
C467        C  0.41597693  0.52574152  0.83173137    -0.21900
C468        C  0.41245859  0.56178547  0.86076301    -0.21900
C469        C  0.54650630  0.72025454  0.65787710    -0.21900
C470        C  0.56210187  0.75073086  0.68725722    -0.21900
C471        C  0.45472601  0.52351930  0.76034865    -0.17300
C472        C  0.48205712  0.65310655  0.66166426    -0.17300
C473        C  0.54270870  0.75555068  0.76374811    -0.17300
C474        C  0.45760399  0.64219089  0.86691625    -0.17300
H475        H  0.36543832  0.54708596  0.72503794     0.15600
H476        H  0.37874388  0.62162710  0.67095278     0.15600
H477        H  0.52659084  0.70850991  0.90008730     0.15600
H478        H  0.56869355  0.77146503  0.84516872     0.15600
H479        H  0.39541992  0.49150626  0.83311799     0.13900
H480        H  0.38879862  0.55933494  0.88935638     0.13900
H481        H  0.55671920  0.72372238  0.62522259     0.13900
H482        H  0.58683641  0.78177061  0.68081953     0.13900
H483        H  0.51797804  0.59241317  0.72017797     0.27200
H484        H  0.47406875  0.67635263  0.78562009     0.27200
N485        N  0.24702512  0.58625982  0.94633188    -0.35600
N486        N  0.24858665  0.69088348  0.94381082    -0.56200
N487        N  0.25999253  0.69452965  0.53334866    -0.35600
N488        N  0.23918492  0.59420672  0.54226262    -0.56200
C489        C  0.21919739  0.59517522  0.91464270     0.28000
C490        C  0.23521855  0.54106003  0.96102104     0.28000
C491        C  0.28828666  0.73400702  0.52087611     0.28000
C492        C  0.26525986  0.68672899  0.57372607     0.28000
C493        C  0.24952958  0.67936118  0.90372041     0.36600
C494        C  0.26637025  0.73705013  0.94544624     0.36600
C495        C  0.22766925  0.54662993  0.53927459     0.36600
C496        C  0.22242573  0.60738099  0.58065449     0.36600
C497        C  0.18817565  0.55502766  0.91023781    -0.20900
C498        C  0.19884034  0.52058974  0.93932944    -0.20900
C499        C  0.31236924  0.75107559  0.55348147    -0.20900
C500        C  0.29804766  0.72108203  0.58677770    -0.20900
C501        C  0.27163662  0.71736352  0.87979573    -0.21900
C502        C  0.28067568  0.75451059  0.90607974    -0.21900
C503        C  0.20111445  0.52956143  0.57503218    -0.21900
C504        C  0.19644556  0.56864013  0.60103379    -0.21900
C505        C  0.22346520  0.63824808  0.88966430    -0.17300
C506        C  0.23861770  0.52012000  0.50331200    -0.17300
C507        C  0.23964642  0.65001934  0.59890139    -0.17300
C508        C  0.29213971  0.75599573  0.48113240    -0.17300
H509        H  0.15962973  0.55084816  0.88942865     0.15600
H510        H  0.18032633  0.48555694  0.94517964     0.15600
H511        H  0.33812923  0.78171276  0.55310761     0.15600
H512        H  0.31037937  0.72420116  0.61708024     0.15600
H513        H  0.27829249  0.71909567  0.84671312     0.13900
H514        H  0.29692431  0.78975952  0.89701158     0.13900
H515        H  0.18602333  0.49322246  0.58137188     0.13900
H516        H  0.17860242  0.56764826  0.63213969     0.13900
H517        H  0.27524204  0.60804494  0.95636620     0.27200
H518        H  0.23415220  0.67742780  0.51644631     0.27200
N519        N  0.23429859  0.59614118  0.70500052    -0.35600
N520        N  0.22002458  0.70301404  0.70611438    -0.56200
N521        N  0.19050027  0.69789368  0.79392189    -0.35600
N522        N  0.22788375  0.57084492  0.80978478    -0.56200
C523        C  0.25376452  0.61136893  0.66724099     0.28000
C524        C  0.25257587  0.55050070  0.71233374     0.28000
C525        C  0.18894021  0.74689762  0.78915484     0.28000
C526        C  0.18310171  0.68736370  0.83436206     0.28000
C527        C  0.21830840  0.69544850  0.66565943     0.36600
C528        C  0.20687750  0.75016580  0.71316565     0.36600
C529        C  0.20793605  0.54496284  0.78017520     0.36600
C530        C  0.19050902  0.60068211  0.82559352     0.36600
C531        C  0.28687542  0.57629254  0.65077025    -0.20900
C532        C  0.28627585  0.53818665  0.67879131    -0.20900
C533        C  0.17626554  0.76770834  0.82725106    -0.20900
C534        C  0.17125215  0.72978712  0.85574964    -0.20900
C535        C  0.20221634  0.73796099  0.64713087    -0.21900
C536        C  0.19686705  0.77305857  0.67697208    -0.21900
C537        C  0.15851342  0.55841715  0.77719021    -0.21900
C538        C  0.14747628  0.59387667  0.80577468    -0.21900
C539        C  0.23678899  0.65256205  0.64518818    -0.17300
C540        C  0.23705548  0.52118096  0.74839190    -0.17300
C541        C  0.19763673  0.64169683  0.85031178    -0.17300
C542        C  0.20261408  0.77277610  0.75195249    -0.17300
H543        H  0.30845273  0.57746719  0.62100754     0.15600
H544        H  0.30955709  0.50631602  0.67373672     0.15600
H545        H  0.17243470  0.80612982  0.83432903     0.15600
H546        H  0.16400121  0.73348119  0.88861312     0.15600
H547        H  0.19627272  0.74381593  0.61528706     0.13900
H548        H  0.18496909  0.81056591  0.67292037     0.13900
H549        H  0.13491321  0.54723147  0.75399902     0.13900
H550        H  0.11295799  0.61488432  0.80977526     0.13900
H551        H  0.20586386  0.61413345  0.72284218     0.27200
H552        H  0.20343318  0.67266121  0.77208481     0.27200
N553        N  0.03801442  0.40843158  0.52416863    -0.35600
N554        N  0.04249720  0.40436340  0.93818494    -0.56200
N555        N  0.00193818  0.29748977  0.94236019    -0.35600
N556        N  0.05225179  0.30544123  0.52316207    -0.56200
C557        C  0.05149290  0.45414186  0.51117210     0.28000
C558        C  0.06064976  0.39829620  0.55839083     0.28000
C559        C  0.00884445  0.30587657  0.90137156     0.28000
C560        C  0.97524517  0.25531522  0.94858301     0.28000
C561        C  0.02078906  0.44817170  0.94820746     0.36600
C562        C  0.02494889  0.39151545  0.90249716     0.36600
C563        C  0.03808618  0.31248841  0.56322979     0.36600
C564        C  0.04511956  0.25774420  0.51596384     0.36600
C565        C  0.08697877  0.47196824  0.53555144    -0.20900
C566        C  0.09143409  0.43705124  0.56636851    -0.20900
C567        C  0.98370494  0.27009579  0.88165922    -0.18900
C568        C  0.96379982  0.23757215  0.91131044    -0.20900
C569        C  0.98718512  0.46051266  0.91973888    -0.21900
C570        C  0.98945603  0.42436905  0.89152408    -0.21900
C571        C  0.01991410  0.26925020  0.58167168    -0.21900
C572        C  0.02632939  0.23403969  0.55214868    -0.21900
C573        C  0.03003255  0.47418950  0.98424322    -0.17300
C574        C  0.04965563  0.35587161  0.58305623    -0.17300
C575        C  0.95918938  0.23274443  0.98689526    -0.17300
C576        C  0.03442631  0.34707091  0.88220149    -0.17300
H577        H  0.10371675  0.50813012  0.53377205     0.15600
H578        H  0.11329336  0.44029458  0.59224461     0.15600
H579        H  0.97856445  0.26821018  0.84942436     0.15600
H580        H  0.94127507  0.20571587  0.90621387     0.15600
H581        H  0.95945150  0.48895018  0.91995965     0.13900
H582        H  0.96610867  0.42132646  0.86652555     0.13900
H583        H  0.00646800  0.26292320  0.61354115     0.13900
H584        H  0.01906728  0.19553963  0.55780048     0.13900
H585        H  0.00858662  0.38824561  0.51394400     0.27200
H586        H  0.01800071  0.31791022  0.96421922     0.27200
N587        N  0.02596114  0.39800843  0.77854978    -0.35600
N588        N  0.03151065  0.40580126  0.69010861    -0.56200
N589        N  0.06001516  0.30175455  0.68802751    -0.35600
N590        N  0.06341544  0.29787931  0.77479013    -0.56200
C591        C  0.02754112  0.44645375  0.76903872     0.28000
C592        C  0.05013471  0.39173279  0.81258127     0.28000
C593        C  0.07439465  0.31759854  0.64925605     0.28000
C594        C  0.08133346  0.25731251  0.69297447     0.28000
C595        C  0.99912509  0.44262264  0.70117173     0.36600
C596        C  0.02279232  0.39250601  0.65195306     0.36600
C597        C  0.06534251  0.30431774  0.81534561     0.36600
C598        C  0.07379042  0.25017897  0.76775105     0.36600
C599        C  0.05541351  0.47069456  0.79597549    -0.20900
C600        C  0.07006463  0.43600403  0.82326289    -0.20900
C601        C  0.10754883  0.28384092  0.63025808    -0.20900
C602        C  0.11052517  0.24502926  0.65742255    -0.20900
C603        C  0.96861921  0.45153740  0.66997762    -0.21900
C604        C  0.98381408  0.41995490  0.63881650    -0.21900
C605        C  0.08212913  0.26186785  0.83330919    -0.21900
C606        C  0.08653446  0.22724694  0.80329430    -0.21900
C607        C  0.00084810  0.46858240  0.73833097    -0.17300
C608        C  0.04976826  0.34767122  0.83597766    -0.17300
C609        C  0.07460096  0.22802243  0.72901978    -0.17300
C610        C  0.05070617  0.35644596  0.62902582    -0.17300
H611        H  0.06357299  0.50940279  0.79651071     0.15600
H612        H  0.09123802  0.44287069  0.84904197     0.15600
H613        H  0.12515073  0.28550985  0.59907645     0.15600
H614        H  0.13233445  0.21201208  0.65184151     0.15600
H615        H  0.93714343  0.47593447  0.66964284     0.13900
H616        H  0.96684172  0.41627893  0.61040074     0.13900
H617        H  0.08965059  0.25616799  0.86485571     0.13900
H618        H  0.09913031  0.18992736  0.80701875     0.13900
H619        H  0.00411216  0.37180126  0.76564513     0.27200
H620        H  0.03165040  0.31690890  0.70808210     0.27200
N621        N  0.25446583  0.39926410  0.55393402    -0.35600
N622        N  0.26274181  0.39415209  0.95818733    -0.56200
N623        N  0.24343278  0.29347551  0.96648902    -0.35600
N624        N  0.25284306  0.29511859  0.55595353    -0.56200
C625        C  0.26694383  0.44464028  0.53984442     0.28000
C626        C  0.27963896  0.39060935  0.58732148     0.28000
C627        C  0.23651874  0.30114736  0.92631911     0.28000
C628        C  0.21831901  0.25213633  0.97919858     0.28000
C629        C  0.27649055  0.44092232  0.96184118     0.36600
C630        C  0.27559782  0.38251895  0.91878798     0.36600
C631        C  0.25210502  0.30501088  0.59647979     0.36600
C632        C  0.23773222  0.24811390  0.55305251     0.36600
C633        C  0.30096652  0.46536579  0.56373473    -0.20900
C634        C  0.30944587  0.43106511  0.59352914    -0.20900
C635        C  0.20673250  0.26428115  0.91328823    -0.20900
C636        C  0.19489019  0.23363207  0.94663535    -0.20900
C637        C  0.30030332  0.45899360  0.92521012    -0.21900
C638        C  0.30035210  0.42149670  0.89783545    -0.21900
C639        C  0.23345822  0.26478509  0.61936593    -0.21900
C640        C  0.22589085  0.22842057  0.59209181    -0.21900
C641        C  0.25031956  0.46638777  0.50439933    -0.17300
C642        C  0.27470041  0.34734548  0.61210452    -0.17300
C643        C  0.23552013  0.22244020  0.51583933    -0.17300
C644        C  0.25805557  0.33997028  0.90106156    -0.17300
H645        H  0.31923329  0.50069347  0.55913663     0.15600
H646        H  0.33575413  0.43553606  0.61615783     0.15600
H647        H  0.19442734  0.26017029  0.88306032     0.15600
H648        H  0.17121886  0.20144855  0.94690382     0.15600
H649        H  0.31620113  0.49512497  0.91902983     0.13900
H650        H  0.31513900  0.42344111  0.86590714     0.13900
H651        H  0.22753140  0.26129819  0.65240714     0.13900
H652        H  0.21227243  0.19203417  0.60051244     0.13900
H653        H  0.22701493  0.37753209  0.54264608     0.27200
H654        H  0.26847768  0.31215529  0.98299874     0.27200
N655        N  0.26368392  0.41722546  0.69127817    -0.35600
N656        N  0.31411984  0.29046910  0.70857959    -0.56200
N657        N  0.28814030  0.28710254  0.79484931    -0.35600
N658        N  0.25502882  0.39202402  0.79528003    -0.56200
C659        C  0.30087248  0.38523575  0.67932362     0.28000
C660        C  0.27991284  0.44278761  0.72279731     0.28000
C661        C  0.31537481  0.24521693  0.78908424     0.28000
C662        C  0.28801703  0.29886329  0.83487997     0.28000
C663        C  0.31666405  0.30039380  0.66802860     0.36600
C664        C  0.32672146  0.24339993  0.71319651     0.36600
C665        C  0.23420006  0.43678773  0.78904823     0.36600
C666        C  0.23779933  0.37612256  0.83332220     0.36600
C667        C  0.34062348  0.39145207  0.70306874    -0.20900
C668        C  0.32766534  0.42794691  0.73007336    -0.20900
C669        C  0.33310635  0.23069743  0.82564772    -0.20900
C670        C  0.31636728  0.26466381  0.85436977    -0.20900
C671        C  0.33456034  0.26007021  0.64615810    -0.21900
C672        C  0.34029433  0.22345580  0.67485073    -0.21900
C673        C  0.20105125  0.44778301  0.82308206    -0.21900
C674        C  0.20347035  0.40962306  0.85084646    -0.21900
C675        C  0.29731786  0.34464486  0.65310755    -0.17300
C676        C  0.24814732  0.46628853  0.75296357    -0.17300
C677        C  0.26008221  0.33746953  0.85496192    -0.17300
C678        C  0.32444826  0.21927100  0.75177692    -0.17300
H679        H  0.37416654  0.36916944  0.70287430     0.15600
H680        H  0.34854003  0.43884820  0.75512267     0.15600
H681        H  0.35643265  0.19924192  0.83091351     0.15600
H682        H  0.32386615  0.26375500  0.88618929     0.15600
H683        H  0.34106943  0.25684075  0.61321148     0.13900
H684        H  0.35245170  0.18657314  0.66771775     0.13900
H685        H  0.17727176  0.47925813  0.82867237     0.13900
H686        H  0.18383709  0.40784258  0.88135201     0.13900
H687        H  0.22730580  0.41736869  0.68211666     0.27200
H688        H  0.26663554  0.30410014  0.77388244     0.27200
C689        C  0.30356179  0.13553809  0.77946742    -0.15400
C690        C  0.33102831  0.16495090  0.75251872    -0.30600
H691        H  0.28052385  0.15072702  0.80535200     0.13600
H692        H  0.35366934  0.14791079  0.72735210     0.14200
C693        C  0.25850707  0.84428176  0.73714025    -0.15400
C694        C  0.21455179  0.82579613  0.75445099    -0.30600
H695        H  0.28322022  0.82238252  0.71637653     0.13600
H696        H  0.19017168  0.84878641  0.77454658     0.14200
C697        C  0.23632902  0.16766497  0.51745513    -0.15400
C698        C  0.26454272  0.14152197  0.48911342    -0.30600
H699        H  0.18368796  0.16128710  0.04998025     0.13600
H700        H  0.28477783  0.15991959  0.46284086     0.14200
C701        C  0.29838189  0.81047219  0.47693573    -0.15400
C702        C  0.27543805  0.84068897  0.50507906    -0.30600
H703        H  0.28399603  0.83758355  0.95321382     0.13600
H704        H  0.25504965  0.82561470  0.53274828     0.14200
C705        C  0.07203237  0.17309588  0.72606547    -0.15400
C706        C  0.04128559  0.14623889  0.75312943    -0.30600
H707        H  0.58184293  0.15856279  0.76882407     0.13600
H708        H  0.01876593  0.16477109  0.77762260     0.14200
C709        C  0.53894269  0.84249659  0.78741715    -0.15400
C710        C  0.56149606  0.80764093  0.76337578    -0.30600
H711        H  0.51170514  0.83207092  0.81287472     0.13600
H712        H  0.09126745  0.82785668  0.73014307     0.14200
C713        C  0.95029895  0.17873520  0.98925360    -0.15400
C714        C  0.98358550  0.14729672  0.97069163    -0.30600
H715        H  0.91974998  0.16392453  0.01010392     0.13600
H716        H  0.49961923  0.15700698  0.44092212     0.14200
C717        C  0.51048291  0.81463346  0.48999637    -0.15400
C718        C  0.52683606  0.84747728  0.51567117    -0.30600
H719        H  0.50106422  0.82738339  0.46011924     0.13600
H720        H  0.98922178  0.83405859  0.03657466     0.14200
O721        O  0.47040814  0.07854890  0.03357537    -0.71900
O722        O  0.47057354  0.93379549  0.05263026    -0.72900
O723        O  0.54686906  0.00471427  0.04169748    -0.61500
O724        O  0.89818805  0.00437835  0.02723660    -0.69900
O725        O  0.95755093  0.01369706  0.44219085    -0.69500
O726        O  0.59967099  0.99341581  0.45124071    -0.60700
O727        O  0.02616458  0.93434714  0.44427705    -0.73300
O728        O  0.03747984  0.07972888  0.45009122    -0.72000
Cu729      Cu  0.47096828  0.00620277  0.04548611     1.04600
Cu730      Cu  0.03235957  0.00713197  0.44492436     1.04300
C731        C  0.51761448  0.09139367  0.47711181     0.94300
C732        C  0.96972853  0.90392550  0.00825284     0.93400
C733        C  0.57297475  0.99619773  0.00769670     0.85600
C734        C  0.87880270  0.99984498  0.99355910     0.91800
O735        O  0.49682506  0.06542186  0.30217731    -0.71900
O736        O  0.50950735  0.91962991  0.28391583    -0.72900
O737        O  0.57624421  0.99923543  0.29236725    -0.61500
O738        O  0.92381133  0.98775459  0.30660857    -0.69900
O739        O  0.93445019  0.98848676  0.23855141    -0.69500
O740        O  0.58338524  0.01167924  0.22492562    -0.60700
O741        O  0.51341979  0.93357246  0.21678250    -0.73300
O742        O  0.99841355  0.07049079  0.24130190    -0.72000
Cu743      Cu  0.50235879  0.99201733  0.29591977     1.04600
Cu744      Cu  0.00874068  0.99755398  0.23748130     1.04300
C745        C  0.49928157  0.09451523  0.27105435     0.94300
C746        C  0.51257554  0.90381694  0.24718760     0.93400
C747        C  0.60315100  0.00844164  0.25884974     0.85600
C748        C  0.90561881  0.98726439  0.27202575     0.91800
O749        O  0.70228901  0.00909482  0.44488442    -0.71900
O750        O  0.85346571  0.01783239  0.44000409    -0.72900
O751        O  0.78328575  0.94084296  0.43572994    -0.61500
O752        O  0.77269891  0.08697592  0.44787093    -0.69900
O753        O  0.72346759  0.05475153  0.04668879    -0.69500
O754        O  0.72923010  0.91025317  0.01992704    -0.60700
O755        O  0.79953249  0.98573628  0.02916533    -0.73300
O756        O  0.64947193  0.98255346  0.03769507    -0.72000
Cu757      Cu  0.77800523  0.01416228  0.43966907     1.04600
Cu758      Cu  0.72508295  0.98235705  0.03567143     1.04300
C759        C  0.62763730  0.99201869  0.00553883     0.94300
C760        C  0.82443692  0.99657021  0.99499009     0.93400
C761        C  0.73322139  0.89648787  0.98255240     0.85600
C762        C  0.72319065  0.08648363  0.01769279     0.91800
O763        O  0.68721204  0.01502034  0.22741300    -0.71900
O764        O  0.83426956  0.99374550  0.23526149    -0.72900
O765        O  0.74873341  0.93263811  0.22842633    -0.61500
O766        O  0.77309347  0.07775138  0.23565347    -0.69900
O767        O  0.75810950  0.07223458  0.30344944    -0.69500
O768        O  0.73433232  0.92935712  0.29640718    -0.60700
O769        O  0.82124812  0.98924820  0.30319805    -0.73300
O770        O  0.67439667  0.01043618  0.29539958    -0.72000
Cu771      Cu  0.76153733  0.00515677  0.22921472     1.04600
Cu772      Cu  0.74682886  0.00026041  0.30191484     1.04300
C773        C  0.65745188  0.01261337  0.26035292     0.94300
C774        C  0.85108815  0.98910695  0.27020504     0.93400
C775        C  0.73476794  0.90917345  0.26166191     0.85600
C776        C  0.76980754  0.09754348  0.27094555     0.91800
N777        N  0.00392144  0.57988894  0.43075191    -0.35600
N778        N  0.00967255  0.59877471  0.03214117    -0.56200
N779        N  0.97490028  0.70254237  0.03264106    -0.35600
N780        N  0.98245795  0.70652829  0.45025999    -0.56200
C781        C  0.98017295  0.56103126  0.46596316     0.28000
C782        C  0.97236915  0.61443860  0.41795838     0.28000
C783        C  0.98088829  0.69253827  0.07254247     0.28000
C784        C  0.94609137  0.74336610  0.03159816     0.28000
C785        C  0.03832424  0.56124512  0.01651220     0.36600
C786        C  0.03532702  0.62038450  0.06016032     0.36600
C787        C  0.98078326  0.70020219  0.40945037     0.36600
C788        C  0.97482031  0.75439327  0.45733283     0.36600
C789        C  0.93300191  0.58184743  0.47431428    -0.20900
C790        C  0.92811256  0.61549654  0.44387069    -0.20900
C791        C  0.95402439  0.72637645  0.09708919    -0.20900
C792        C  0.93261162  0.75872560  0.07122743    -0.20900
C793        C  0.08478645  0.56249273  0.03172678    -0.21900
C794        C  0.08177338  0.59820200  0.06138224    -0.21900
C795        C  0.97009253  0.74406128  0.39058070    -0.21900
C796        C  0.96649027  0.77846230  0.42087531    -0.21900
C797        C  0.02149122  0.52956713  0.98685777    -0.17300
C798        C  0.98651753  0.65360114  0.39113234    -0.17300
C799        C  0.93583683  0.76956532  0.99558626    -0.17300
C800        C  0.01461438  0.65705750  0.08638238    -0.17300
H801        H  0.90650525  0.57548026  0.50109435     0.15600
H802        H  0.89793594  0.64171224  0.44268048     0.15600
H803        H  0.95173560  0.72887719  0.13010454     0.15600
H804        H  0.91041507  0.79056666  0.08045367     0.15600
H805        H  0.11794660  0.54161817  0.02133370     0.13900
H806        H  0.11101547  0.60851247  0.08016061     0.13900
H807        H  0.96352428  0.75040121  0.35890717     0.13900
H808        H  0.95694413  0.81658444  0.41663610     0.13900
H809        H  0.04147277  0.57435045  0.41948516     0.27200
H810        H  0.99435702  0.68591111  0.00738935     0.27200
N811        N  0.01572525  0.58726807  0.18160500    -0.35600
N812        N  0.98939022  0.59935911  0.28384778    -0.56200
N813        N  0.02202626  0.69703180  0.28229630    -0.35600
N814        N  0.04138099  0.69808679  0.19171322    -0.56200
C815        C  0.97587189  0.56527533  0.20293437     0.28000
C816        C  0.99644982  0.61829414  0.15469539     0.28000
C817        C  0.02744497  0.68312726  0.32166011     0.28000
C818        C  0.05050565  0.73760148  0.27391716     0.28000
C819        C  0.97061035  0.55529497  0.27554354     0.36600
C820        C  0.97792026  0.60682125  0.32432738     0.36600
C821        C  0.04542435  0.69289752  0.15040966     0.36600
C822        C  0.05322848  0.74526936  0.19850035     0.36600
C823        C  0.93139258  0.58541070  0.19204949    -0.20900
C824        C  0.94436847  0.61722434  0.15984841    -0.20900
C825        C  0.06225846  0.71375562  0.33718999    -0.20900
C826        C  0.07561085  0.74889977  0.30747238    -0.20900
C827        C  0.94635598  0.53402920  0.31043871    -0.21900
C828        C  0.94946572  0.56719801  0.34118987    -0.21900
C829        C  0.06298456  0.73574146  0.13103338    -0.21900
C830        C  0.06680263  0.76926747  0.16136072    -0.21900
C831        C  0.97857577  0.53404968  0.23679731    -0.17300
C832        C  0.02403194  0.65361694  0.13064944    -0.17300
C833        C  0.05155305  0.76673279  0.23774249    -0.17300
C834        C  0.99726971  0.64728678  0.34499226    -0.17300
H835        H  0.89364078  0.57743617  0.20583096     0.15600
H836        H  0.91869314  0.63991405  0.14436037     0.15600
H837        H  0.07502849  0.71226096  0.36748602     0.15600
H838        H  0.10069852  0.77952597  0.31019737     0.15600
H839        H  0.92777617  0.49879427  0.31328897     0.13900
H840        H  0.93233265  0.56106331  0.37191349     0.13900
H841        H  0.06885702  0.74315712  0.09838897     0.13900
H842        H  0.07841960  0.80690706  0.15610505     0.13900
H843        H  0.05367855  0.58247796  0.18595560     0.27200
H844        H  0.99510484  0.68445597  0.26399390     0.27200
N845        N  0.78923243  0.60065104  0.45655311    -0.35600
N846        N  0.79881524  0.70503970  0.45112286    -0.56200
N847        N  0.74114176  0.68616304  0.03893161    -0.35600
N848        N  0.71991314  0.56908572  0.06080799    -0.56200
C849        C  0.76480646  0.61193035  0.42344807     0.28000
C850        C  0.76966312  0.55829147  0.47217201     0.28000
C851        C  0.76688359  0.72761409  0.02741133     0.28000
C852        C  0.75281288  0.67358429  0.07708725     0.28000
C853        C  0.80488232  0.69171772  0.41130483     0.36600
C854        C  0.81787436  0.75062656  0.45325940     0.36600
C855        C  0.68399625  0.55296780  0.03840079     0.36600
C856        C  0.69750600  0.60422967  0.08467972     0.36600
C857        C  0.72707545  0.57741419  0.42035127    -0.20900
C858        C  0.73099620  0.54292251  0.45064778    -0.20900
C859        C  0.79752597  0.73978106  0.05751913    -0.20900
C860        C  0.78954035  0.70499760  0.08845125    -0.20900
C861        C  0.83178810  0.72781484  0.38830522    -0.21900
C862        C  0.83879738  0.76564177  0.41468816    -0.21900
C863        C  0.63965792  0.57901225  0.04675807    -0.21900
C864        C  0.64797332  0.61109570  0.07713113    -0.21900
C865        C  0.77814267  0.65168825  0.39616242    -0.17300
C866        C  0.69370679  0.52217860  0.00507584    -0.17300
C867        C  0.72502045  0.63903544  0.10316438    -0.17300
C868        C  0.76073113  0.75628630  0.99179934    -0.17300
H869        H  0.69736970  0.57763425  0.40060062     0.15600
H870        H  0.70648178  0.51170054  0.45762585     0.15600
H871        H  0.82297242  0.77058311  0.05737522     0.15600
H872        H  0.80654436  0.70465406  0.11706445     0.15600
H873        H  0.84241997  0.72817198  0.35558514     0.13900
H874        H  0.85736136  0.80012112  0.40645159     0.13900
H875        H  0.60582257  0.57626137  0.03127570     0.13900
H876        H  0.62257205  0.63942680  0.08925958     0.13900
H877        H  0.81943216  0.61891665  0.46727001     0.27200
H878        H  0.71204664  0.67109795  0.02420555     0.27200
N879        N  0.74639652  0.59277525  0.20837280    -0.35600
N880        N  0.72522092  0.69655693  0.20742634    -0.56200
N881        N  0.74310390  0.70219334  0.29388423    -0.35600
N882        N  0.77785872  0.57813419  0.31251137    -0.56200
C883        C  0.72303891  0.59774234  0.17364486     0.28000
C884        C  0.74115925  0.54547118  0.22099749     0.28000
C885        C  0.73441411  0.74999505  0.28622209     0.28000
C886        C  0.74660345  0.69694683  0.33458876     0.28000
C887        C  0.71659695  0.68767930  0.16830349     0.36600
C888        C  0.72194358  0.74559160  0.21173936     0.36600
C889        C  0.74736016  0.54838380  0.29293570     0.36600
C890        C  0.74644325  0.60958012  0.33425210     0.36600
C891        C  0.70074517  0.55335805  0.16565828    -0.20900
C892        C  0.71141889  0.52078173  0.19591068    -0.20900
C893        C  0.73091924  0.77494674  0.32309656    -0.20900
C894        C  0.73625118  0.74106227  0.35362584    -0.20900
C895        C  0.70300046  0.73070139  0.14919947    -0.21900
C896        C  0.70787859  0.76751693  0.17626295    -0.21900
C897        C  0.69743815  0.56193501  0.30205076    -0.21900
C898        C  0.69707062  0.60147449  0.32679051    -0.21900
C899        C  0.72178211  0.64141035  0.14943594    -0.17300
C900        C  0.76225936  0.52524428  0.25557832    -0.17300
C901        C  0.76110135  0.65274529  0.35310212    -0.17300
C902        C  0.73163162  0.77162624  0.24686764    -0.17300
H903        H  0.67633556  0.54518000  0.14243694     0.15600
H904        H  0.69809394  0.48340447  0.19947068     0.15600
H905        H  0.72490840  0.81337554  0.32862445     0.15600
H906        H  0.73337745  0.74865087  0.38602331     0.15600
H907        H  0.69121371  0.73540248  0.11876587     0.13900
H908        H  0.70096251  0.80600113  0.17073893     0.13900
H909        H  0.66525518  0.54817560  0.28808657     0.13900
H910        H  0.66449594  0.62320864  0.33724088     0.13900
H911        H  0.76898648  0.61857850  0.22086763     0.27200
H912        H  0.75126149  0.67487671  0.27253760     0.27200
N913        N  0.49391264  0.40506781  0.04199789    -0.35600
N914        N  0.47948471  0.40947621  0.45786717    -0.56200
N915        N  0.48874933  0.30201490  0.45642755    -0.35600
N916        N  0.47159767  0.30204182  0.04886311    -0.56200
C917        C  0.51842380  0.44450798  0.02476579     0.28000
C918        C  0.52064466  0.38807930  0.07191949     0.28000
C919        C  0.50381776  0.31748145  0.41783007     0.28000
C920        C  0.51117420  0.25841062  0.46253010     0.28000
C921        C  0.45467728  0.45036001  0.47104885     0.36600
C922        C  0.46149280  0.39658376  0.42264263     0.36600
C923        C  0.47394915  0.31260139  0.08856194     0.36600
C924        C  0.45113373  0.25720869  0.04776930     0.36600
C925        C  0.56409053  0.45018532  0.04097072    -0.20900
C926        C  0.56440974  0.41531285  0.07232874    -0.20900
C927        C  0.53768093  0.28400417  0.39941133    -0.18900
C928        C  0.54229889  0.24658902  0.42769245    -0.20900
C929        C  0.41891534  0.46222599  0.44457384    -0.21900
C930        C  0.42416131  0.42873868  0.41330195    -0.21900
C931        C  0.45192731  0.27522264  0.11325753    -0.21900
C932        C  0.43896698  0.23934793  0.08734267    -0.21900
C933        C  0.46774958  0.47617444  0.50580520    -0.17300
C934        C  0.50194120  0.35251512  0.10111663    -0.17300
C935        C  0.50182010  0.22964535  0.49884882    -0.17300
C936        C  0.48200523  0.35785580  0.39841379    -0.17300
H937        H  0.59163166  0.47878980  0.03348852     0.15600
H938        H  0.59257023  0.41113346  0.09364059     0.15600
H939        H  0.55628959  0.28582914  0.36856494     0.15600
H940        H  0.56612042  0.21471730  0.42306178     0.15600
H941        H  0.39108294  0.49084579  0.44754484     0.13900
H942        H  0.40249873  0.42744069  0.38721381     0.13900
H943        H  0.44695794  0.27283897  0.14632448     0.13900
H944        H  0.42197033  0.20457122  0.09690688     0.13900
H945        H  0.45744698  0.39439864  0.03694678     0.27200
H946        H  0.46016507  0.31780278  0.47599234     0.27200
N947        N  0.47303671  0.41035897  0.29204236    -0.35600
N948        N  0.49182746  0.41542347  0.20318353    -0.56200
N949        N  0.50462758  0.30914966  0.20751672    -0.35600
N950        N  0.49006717  0.30579763  0.29415491    -0.56200
C951        C  0.48304989  0.45752251  0.28139920     0.28000
C952        C  0.49007368  0.40207890  0.32903637     0.28000
C953        C  0.52473818  0.32068122  0.16910809     0.28000
C954        C  0.51812767  0.26255524  0.21580567     0.28000
C955        C  0.46454249  0.45675520  0.21055186     0.36600
C956        C  0.48590092  0.40225789  0.16445839     0.36600
C957        C  0.46986816  0.31520156  0.33249531     0.36600
C958        C  0.47933875  0.25873233  0.28680828     0.36600
C959        C  0.50900295  0.47916750  0.31097299    -0.20900
C960        C  0.51334835  0.44404497  0.34125018    -0.20900
C961        C  0.55338687  0.28165884  0.15332989    -0.20900
C962        C  0.54883396  0.24472548  0.18273872    -0.20900
C963        C  0.44141527  0.46997222  0.17589866    -0.21900
C964        C  0.45509397  0.43557161  0.14678583    -0.21900
C965        C  0.44538045  0.27412557  0.34977674    -0.21900
C966        C  0.45119077  0.23828934  0.32065323    -0.21900
C967        C  0.46234013  0.48155944  0.24845028    -0.17300
C968        C  0.47992526  0.35869831  0.35268594    -0.17300
C969        C  0.49805880  0.23480313  0.25051227    -0.17300
C970        C  0.50728041  0.35984299  0.14558901    -0.17300
H971        H  0.52141486  0.51685661  0.31147313     0.15600
H972        H  0.53028341  0.44933298  0.36948184     0.15600
H973        H  0.57209952  0.27874734  0.12262645     0.15600
H974        H  0.56452013  0.20829270  0.17944093     0.15600
H975        H  0.41540829  0.49936703  0.17177234     0.13900
H976        H  0.44182449  0.43424187  0.11673413     0.13900
H977        H  0.42620100  0.27018907  0.38031519     0.13900
H978        H  0.43641443  0.20154764  0.32440526     0.13900
H979        H  0.44963816  0.38727009  0.27731905     0.27200
H980        H  0.47585465  0.32848665  0.22395748     0.27200
N981        N  0.74187332  0.40317622  0.05220155    -0.35600
N982        N  0.78539474  0.41023849  0.46520393    -0.56200
N983        N  0.77108444  0.30852988  0.46952852    -0.35600
N984        N  0.73254863  0.29551244  0.05266529    -0.56200
C985        C  0.71500491  0.44471997  0.04669125     0.28000
C986        C  0.73463889  0.39032480  0.09232007     0.28000
C987        C  0.76487703  0.31967068  0.42971482     0.28000
C988        C  0.74336207  0.26800902  0.48016676     0.28000
C989        C  0.80076304  0.45586767  0.47258535     0.36600
C990        C  0.80581731  0.39933679  0.42692656     0.36600
C991        C  0.73599408  0.30253426  0.09309652     0.36600
C992        C  0.71532760  0.24927310  0.04876588     0.36600
C993        C  0.68901825  0.45695941  0.08399650    -0.20900
C994        C  0.70180547  0.42292355  0.11272419    -0.20900
C995        C  0.73116304  0.28696545  0.41558094    -0.20900
C996        C  0.71789061  0.25420926  0.44728057    -0.20900
C997        C  0.83280653  0.47359681  0.44004613    -0.21900
C998        C  0.83686456  0.43749473  0.41144518    -0.21900
C999        C  0.71687531  0.26189978  0.11529279    -0.21900
C1000       C  0.70476662  0.22797697  0.08732545    -0.21900
C1001       C  0.71633251  0.47157920  0.00880063    -0.17300
C1002       C  0.75250335  0.34680442  0.10990318    -0.17300
C1003       C  0.70701367  0.22657161  0.01111635    -0.17300
C1004       C  0.79171879  0.35717838  0.40590172    -0.17300
H1005       H  0.66179458  0.48570389  0.09028046     0.15600
H1006       H  0.68656752  0.42078331  0.14453273     0.15600
H1007       H  0.71812036  0.28629711  0.38539544     0.15600
H1008       H  0.69263406  0.22335728  0.44621644     0.15600
H1009       H  0.85263165  0.50824391  0.43782892     0.13900
H1010       H  0.86099309  0.43992505  0.38325388     0.13900
H1011       H  0.71079815  0.25756076  0.14826288     0.13900
H1012       H  0.68811078  0.19244748  0.09478511     0.13900
H1013       H  0.76650155  0.38560512  0.03044205     0.27200
H1014       H  0.79766263  0.32396043  0.48676361     0.27200
N1015       N  0.77674207  0.40117173  0.21145698    -0.35600
N1016       N  0.79755440  0.29887103  0.21035862    -0.56200
N1017       N  0.81000898  0.30019184  0.29927970    -0.35600
N1018       N  0.77762797  0.42425220  0.31864264    -0.56200
C1019       C  0.78324058  0.39286498  0.17064870     0.28000
C1020       C  0.78976871  0.44823630  0.21686985     0.28000
C1021       C  0.81849944  0.25218959  0.29188992     0.28000
C1022       C  0.81174023  0.30714548  0.34001437     0.28000
C1023       C  0.79361255  0.30532548  0.16973329     0.36600
C1024       C  0.81615890  0.25338417  0.21529832     0.36600
C1025       C  0.80302562  0.45133746  0.28799735     0.36600
C1026       C  0.81267640  0.39470006  0.33379430     0.36600
C1027       C  0.80352663  0.43427815  0.15024988    -0.20900
C1028       C  0.80799066  0.46920731  0.17952223    -0.20900
C1029       C  0.82794502  0.22875018  0.32828779    -0.20900
C1030       C  0.82407167  0.26343033  0.35853726    -0.20900
C1031       C  0.81375271  0.26531677  0.14855769    -0.21900
C1032       C  0.82672290  0.23197292  0.17732500    -0.21900
C1033       C  0.85315894  0.43740629  0.28326408    -0.21900
C1034       C  0.85915542  0.40143244  0.31172992    -0.21900
C1035       C  0.77346810  0.34784523  0.15195592    -0.17300
C1036       C  0.78062139  0.47259277  0.25476662    -0.17300
C1037       C  0.80211149  0.35298496  0.35927235    -0.17300
C1038       C  0.81834846  0.22870643  0.25341961    -0.17300
H1039       H  0.81494453  0.43858497  0.11780244     0.15600
H1040       H  0.82211162  0.50609326  0.17392738     0.15600
H1041       H  0.83763273  0.19065897  0.33256858     0.15600
H1042       H  0.83064239  0.25709109  0.39020189     0.15600
H1043       H  0.81898912  0.26050570  0.11574443     0.13900
H1044       H  0.84240926  0.19614689  0.17067450     0.13900
H1045       H  0.88122006  0.44886671  0.25891499     0.13900
H1046       H  0.89298711  0.38030314  0.31461551     0.13900
H1047       H  0.75903932  0.37803098  0.23409506     0.27200
H1048       H  0.80122551  0.32709145  0.27837378     0.27200
C1049       C  0.77825979  0.15025687  0.27487774    -0.15400
C1050       C  0.81582950  0.17424040  0.25275335    -0.30600
H1051       H  0.75311247  0.16982413  0.29707149     0.13600
H1052       H  0.84102013  0.15421294  0.23095781     0.14200
C1053       C  0.71663873  0.85889333  0.26085475    -0.15400
C1054       C  0.74357406  0.82435974  0.24073234    -0.30600
H1055       H  0.68313125  0.84907195  0.28086253     0.13600
H1056       H  0.77661750  0.83441041  0.22021478     0.14200
C1057       C  0.69664928  0.17258282  0.01030052    -0.15400
C1058       C  0.72560264  0.13911014  0.02720480    -0.30600
H1059       H  0.72409436  0.16558798  0.54362933     0.13600
H1060       H  0.75391268  0.15059995  0.04664886     0.14200
C1061       C  0.76330425  0.81137188  0.99534083    -0.15400
C1062       C  0.73878833  0.84342211  0.97240640    -0.30600
H1063       H  0.83872044  0.85258199  0.51007652     0.13600
H1064       H  0.72138111  0.83063387  0.94600926     0.14200
C1065       C  0.49503664  0.18040539  0.24655202    -0.15400
C1066       C  0.50086134  0.14795864  0.27714276    -0.30600
H1067       H  0.96738031  0.15645396  0.21956467     0.13600
H1068       H  0.50920556  0.16046568  0.30694653     0.14200
C1069       C  0.02420342  0.84513447  0.27159346    -0.15400
C1070       C  0.05133130  0.82166359  0.24082540    -0.30600
H1071       H  0.00587109  0.82418612  0.29729653     0.13600
H1072       H  0.53524153  0.82855374  0.29559774     0.14200
C1073       C  0.51409976  0.17638625  0.50085526    -0.15400
C1074       C  0.51055790  0.14457130  0.47034842    -0.30600
H1075       H  0.52404186  0.16214054  0.53011358     0.13600
H1076       H  0.01434259  0.16070123  0.94923524     0.14200
C1077       C  0.93341430  0.82401338  0.99577260    -0.15400
C1078       C  0.96494565  0.85101089  0.01575312    -0.30600
H1079       H  0.90958584  0.84266105  0.97548304     0.13600
H1080       H  0.53738238  0.83566990  0.54539986     0.14200
O1081       O  0.51933838  0.07456825  0.51353816    -0.71900
O1082       O  0.52554131  0.93033221  0.53582675    -0.72900
O1083       O  0.59761299  0.00507307  0.51830322    -0.61500
O1084       O  0.94396475  0.00875528  0.51012439    -0.69900
O1085       O  0.90620228  0.99690066  0.95947488    -0.69500
O1086       O  0.55214783  0.99194607  0.97464327    -0.60700
O1087       O  0.97371933  0.92056137  0.97144020    -0.73300
O1088       O  0.98741630  0.06483494  0.94944103    -0.72000
Cu1089     Cu  0.52243203  0.00288648  0.52673895     1.04600
Cu1090     Cu  0.98127114  0.99218211  0.95822123     1.04300
C1091       C  0.47502821  0.09615279  0.99703027     0.94300
C1092       C  0.01565081  0.90916308  0.47708759     0.93400
C1093       C  0.62221838  0.00029489  0.48312437     0.85600
C1094       C  0.92753938  0.01322670  0.47507698     0.91800
O1095       O  0.53060269  0.07145711  0.77615722    -0.71900
O1096       O  0.53566372  0.92691991  0.80555056    -0.72900
O1097       O  0.60690759  0.00504134  0.79262081    -0.61500
O1098       O  0.95856990  0.99587229  0.79615825    -0.69900
O1099       O  0.96819918  0.99106542  0.72826326    -0.69500
O1100       O  0.61811996  0.99191440  0.72561461    -0.60700
O1101       O  0.55039632  0.91017690  0.73948611    -0.73300
O1102       O  0.04430480  0.06632170  0.72247524    -0.72000
Cu1103     Cu  0.53272793  0.99974226  0.79334038     1.04600
Cu1104     Cu  0.04349880  0.99171770  0.72632016     1.04300
C1105       C  0.53321491  0.08566640  0.73857194     0.94300
C1106       C  0.54323882  0.89568456  0.77698600     0.93400
C1107       C  0.63568054  0.00163032  0.75938884     0.85600
C1108       C  0.93986792  0.99287133  0.76196501     0.91800
O1109       O  0.65294869  0.99846595  0.97080537    -0.71900
O1110       O  0.80251556  0.00420729  0.96267520    -0.72900
O1111       O  0.73172265  0.92830379  0.95359965    -0.61500
O1112       O  0.72347467  0.07297724  0.98045645    -0.69900
O1113       O  0.76380049  0.07977666  0.51570597    -0.69500
O1114       O  0.78186309  0.93271112  0.50328357    -0.60700
O1115       O  0.84601550  0.01289883  0.50805237    -0.73300
O1116       O  0.69870081  0.99924097  0.51252229    -0.72000
Cu1117     Cu  0.72759279  0.00145496  0.96456356     1.04600
Cu1118     Cu  0.77236690  0.00587323  0.51218615     1.04300
C1119       C  0.67695844  0.00283450  0.47979741     0.94300
C1120       C  0.87322310  0.01552061  0.47392141     0.93400
C1121       C  0.78591630  0.91383296  0.46757114     0.85600
C1122       C  0.76594745  0.10649473  0.48314363     0.91800
O1123       O  0.71797949  0.01453563  0.72742575    -0.71900
O1124       O  0.86678268  0.00169212  0.72749624    -0.72900
O1125       O  0.78535874  0.93735560  0.71550815    -0.61500
O1126       O  0.79926701  0.08041946  0.74009767    -0.69900
O1127       O  0.78755865  0.06440256  0.80698470    -0.69500
O1128       O  0.77370612  0.92172464  0.78249347    -0.60700
O1129       O  0.85674606  0.98643680  0.79458362    -0.73300
O1130       O  0.70801469  0.99947413  0.79460892    -0.72000
Cu1131     Cu  0.79287051  0.00930155  0.72529518     1.04600
Cu1132     Cu  0.78152606  0.99240839  0.79699611     1.04300
C1133       C  0.68968222  0.00634504  0.76055381     0.94300
C1134       C  0.88525615  0.99314597  0.76128605     0.93400
C1135       C  0.77406489  0.90764868  0.74546174     0.85600
C1136       C  0.79580505  0.09489957  0.77721460     0.91800
N1137       N  0.99605273  0.57799496  0.93042788    -0.35600
N1138       N  0.99709412  0.59963655  0.54154850    -0.56200
N1139       N  0.98844202  0.70391305  0.54021144    -0.35600
N1140       N  0.93621791  0.69729422  0.95379846    -0.56200
C1141       C  0.98490370  0.55059577  0.96478066     0.28000
C1142       C  0.95434674  0.60401345  0.92503168     0.28000
C1143       C  0.98472174  0.69499037  0.58142514     0.28000
C1144       C  0.97280620  0.75057797  0.53436713     0.28000
C1145       C  0.99946549  0.55097190  0.53452199     0.36600
C1146       C  0.00353175  0.60566922  0.58135281     0.36600
C1147       C  0.93539731  0.68815516  0.91355248     0.36600
C1148       C  0.93089196  0.74576801  0.95830663     0.36600
C1149       C  0.93563497  0.55818787  0.98083493    -0.20900
C1150       C  0.91625890  0.59251529  0.95569659    -0.20900
C1151       C  0.96513839  0.73594976  0.60160954    -0.20900
C1152       C  0.95858923  0.77108963  0.57224479    -0.20900
C1153       C  0.00258718  0.52577999  0.57071024    -0.21900
C1154       C  0.00977855  0.55988605  0.59939834    -0.21900
C1155       C  0.92554309  0.73078407  0.89241878    -0.21900
C1156       C  0.92308108  0.76762869  0.92083176    -0.21900
C1157       C  0.00245412  0.53170518  0.49460742    -0.17300
C1158       C  0.95270397  0.64317338  0.89697364    -0.17300
C1159       C  0.97382031  0.77655245  0.49626774    -0.17300
C1160       C  0.99944880  0.65140801  0.60168472    -0.17300
H1161       H  0.91741468  0.54366651  0.00945113     0.15600
H1162       H  0.87930204  0.60905817  0.96034423     0.15600
H1163       H  0.95660218  0.74032501  0.63429504     0.15600
H1164       H  0.94435957  0.80751820  0.57855102     0.15600
H1165       H  0.00057868  0.48692914  0.57616267     0.13900
H1166       H  0.01812434  0.55024411  0.62984224     0.13900
H1167       H  0.92349300  0.73539876  0.85979411     0.13900
H1168       H  0.91832169  0.80609048  0.91394814     0.13900
H1169       H  0.03153214  0.58241032  0.91418466     0.27200
H1170       H  0.00577890  0.68173751  0.51752092     0.27200
N1171       N  0.00556216  0.58906421  0.69954506    -0.35600
N1172       N  0.98309607  0.58748935  0.79184966    -0.56200
N1173       N  0.01014599  0.68959899  0.79346137    -0.35600
N1174       N  0.03223122  0.69322514  0.70594074    -0.56200
C1175       C  0.97385565  0.55234521  0.71207224     0.28000
C1176       C  0.98159531  0.61695587  0.67320741     0.28000
C1177       C  0.00531032  0.67695319  0.83393323     0.28000
C1178       C  0.03761804  0.73171971  0.78897331     0.28000
C1179       C  0.97157963  0.54078056  0.78346864     0.36600
C1180       C  0.96461089  0.59530101  0.83095883     0.36600
C1181       C  0.03524262  0.68742249  0.66493444     0.36600
C1182       C  0.05251366  0.73701667  0.71264521     0.36600
C1183       C  0.92749724  0.56044859  0.69770054    -0.20900
C1184       C  0.93330435  0.59990818  0.67097879    -0.20900
C1185       C  0.03165500  0.71037975  0.85501900    -0.20900
C1186       C  0.05099181  0.74522319  0.82694993    -0.20900
C1187       C  0.94520078  0.51829681  0.81678907    -0.21900
C1188       C  0.93916353  0.55334894  0.84657341    -0.21900
C1189       C  0.06150074  0.72599277  0.64515393    -0.21900
C1190       C  0.07128150  0.75817077  0.67532306    -0.21900
C1191       C  0.98129299  0.52056404  0.74448750    -0.17300
C1192       C  0.00608453  0.65219170  0.64699743    -0.17300
C1193       C  0.05086540  0.75876153  0.75171485    -0.17300
C1194       C  0.97424693  0.63849100  0.85274007    -0.17300
H1195       H  0.89346891  0.53965805  0.70582347     0.15600
H1196       H  0.90565951  0.61502292  0.65242430     0.15600
H1197       H  0.03553859  0.71036645  0.88755277     0.15600
H1198       H  0.07258157  0.77698718  0.83381488     0.15600
H1199       H  0.92934367  0.48177229  0.81840006     0.13900
H1200       H  0.91786078  0.54774921  0.87595615     0.13900
H1201       H  0.06952645  0.73219130  0.61249801     0.13900
H1202       H  0.08897782  0.79352341  0.66974731     0.13900
H1203       H  0.04264685  0.59293924  0.70668081     0.27200
H1204       H  0.99029855  0.67372345  0.77133973     0.27200
N1205       N  0.70479573  0.58785066  0.95500350    -0.35600
N1206       N  0.73094414  0.68974112  0.95075710    -0.56200
N1207       N  0.78890909  0.71306092  0.53964344    -0.35600
N1208       N  0.77999777  0.60920557  0.54774558    -0.56200
C1209       C  0.69084677  0.59815511  0.91728869     0.28000
C1210       C  0.68611145  0.54351869  0.96695547     0.28000
C1211       C  0.81176054  0.75633720  0.52942198     0.28000
C1212       C  0.78999300  0.70575449  0.58054534     0.28000
C1213       C  0.73492540  0.67858595  0.91045135     0.36600
C1214       C  0.75397685  0.73341601  0.95419849     0.36600
C1215       C  0.76850316  0.56174575  0.54346766     0.36600
C1216       C  0.75379312  0.62348372  0.58277610     0.36600
C1217       C  0.66162427  0.55906072  0.90591059    -0.20900
C1218       C  0.66001198  0.52397334  0.93692826    -0.20900
C1219       C  0.82779617  0.77667804  0.56452182    -0.20900
C1220       C  0.81480617  0.74436241  0.59657218    -0.20900
C1221       C  0.76409147  0.71420672  0.88853559    -0.21900
C1222       C  0.77476580  0.74958029  0.91604025    -0.21900
C1223       C  0.73293618  0.54614109  0.57452933    -0.21900
C1224       C  0.72286838  0.58574898  0.59921175    -0.21900
C1225       C  0.70633124  0.64085004  0.89337484    -0.17300
C1226       C  0.78284357  0.53566171  0.50793205    -0.17300
C1227       C  0.76561471  0.66635124  0.60325453    -0.17300
C1228       C  0.81670993  0.77848962  0.48967191    -0.17300
H1229       H  0.64256329  0.55521112  0.87869589     0.15600
H1230       H  0.64048050  0.48918198  0.93796921     0.15600
H1231       H  0.84776613  0.81071064  0.56711189     0.15600
H1232       H  0.82215683  0.74918357  0.62811550     0.15600
H1233       H  0.77488873  0.71555117  0.85584002     0.13900
H1234       H  0.79711473  0.78226335  0.90906253     0.13900
H1235       H  0.71450580  0.51081796  0.57790402     0.13900
H1236       H  0.69736412  0.58614423  0.62700755     0.13900
H1237       H  0.72924217  0.60737830  0.97151730     0.27200
H1238       H  0.76818165  0.69233829  0.52092579     0.27200
N1239       N  0.74350088  0.60808890  0.70737214    -0.35600
N1240       N  0.73162579  0.71568294  0.70989518    -0.56200
N1241       N  0.68954346  0.70768855  0.79529743    -0.35600
N1242       N  0.72231102  0.57846259  0.81062331    -0.56200
C1243       C  0.76907708  0.62477033  0.67217973     0.28000
C1244       C  0.75892759  0.56142255  0.71471762     0.28000
C1245       C  0.69050366  0.75693797  0.79177744     0.28000
C1246       C  0.67946517  0.69571293  0.83532487     0.28000
C1247       C  0.73273678  0.70809824  0.66926035     0.36600
C1248       C  0.71284099  0.76107212  0.71663537     0.36600
C1249       C  0.70572400  0.55433499  0.77863794     0.36600
C1250       C  0.68452923  0.60918832  0.82379272     0.36600
C1251       C  0.80291350  0.58932188  0.65763966    -0.20900
C1252       C  0.79635460  0.54952686  0.68377866    -0.20900
C1253       C  0.67666014  0.77662330  0.83007812    -0.20900
C1254       C  0.66864511  0.73777397  0.85745315    -0.20900
C1255       C  0.71322750  0.74863246  0.65021243    -0.21900
C1256       C  0.70201318  0.78277961  0.68017254    -0.21900
C1257       C  0.65773291  0.56940695  0.77183465    -0.21900
C1258       C  0.64439528  0.60449796  0.80028075    -0.21900
C1259       C  0.75601341  0.66704869  0.64946202    -0.17300
C1260       C  0.73811549  0.53117492  0.74863047    -0.17300
C1261       C  0.68937513  0.64831663  0.85077044    -0.17300
C1262       C  0.70625079  0.78356302  0.75527876    -0.17300
H1263       H  0.82786827  0.59074480  0.62954452     0.15600
H1264       H  0.81758055  0.51644093  0.67859850     0.15600
H1265       H  0.67366630  0.81477951  0.83814217     0.15600
H1266       H  0.65923289  0.74046788  0.89019646     0.15600
H1267       H  0.70858985  0.75369516  0.61803016     0.13900
H1268       H  0.68639506  0.81887502  0.67594091     0.13900
H1269       H  0.63681643  0.55936962  0.74659143     0.13900
H1270       H  0.61043234  0.62640140  0.80209756     0.13900
H1271       H  0.71332161  0.62597973  0.72299601     0.27200
H1272       H  0.70092106  0.68284977  0.77289225     0.27200
N1273       N  0.48486234  0.40337655  0.54499551    -0.35600
N1274       N  0.49945625  0.40619798  0.95184635    -0.56200
N1275       N  0.46915916  0.29921088  0.96204172    -0.35600
N1276       N  0.49639080  0.29981302  0.54267263    -0.56200
C1277       C  0.49741671  0.44926626  0.53200302     0.28000
C1278       C  0.51136125  0.39212257  0.57686057     0.28000
C1279       C  0.46542376  0.30686822  0.92171863     0.28000
C1280       C  0.44761439  0.25533675  0.97240490     0.28000
C1281       C  0.48050666  0.45069238  0.96261653     0.36600
C1282       C  0.47833032  0.39305669  0.91820091     0.36600
C1283       C  0.48556555  0.30722855  0.58308561     0.36600
C1284       C  0.48592833  0.25265383  0.53603087     0.36600
C1285       C  0.53583125  0.46627732  0.55376691    -0.20900
C1286       C  0.54348525  0.43053318  0.58318475    -0.20900
C1287       C  0.43857344  0.26892044  0.90658197    -0.18900
C1288       C  0.42809292  0.23589930  0.93847827    -0.20900
C1289       C  0.44542426  0.46457318  0.93581688    -0.21900
C1290       C  0.44432569  0.42791916  0.90769103    -0.21900
C1291       C  0.46541503  0.26504410  0.60226129    -0.21900
C1292       C  0.46637986  0.23001328  0.57236615    -0.21900
C1293       C  0.49614135  0.47558813  0.99707568    -0.17300
C1294       C  0.50151072  0.34975668  0.60189585    -0.17300
C1295       C  0.44580644  0.23184199  0.01139018    -0.17300
C1296       C  0.48624415  0.34775946  0.89917533    -0.17300
H1297       H  0.55319046  0.50214712  0.55107024     0.15600
H1298       H  0.56847748  0.43307675  0.60709764     0.15600
H1299       H  0.42794000  0.26529417  0.87578250     0.15600
H1300       H  0.40783425  0.20175069  0.93702964     0.15600
H1301       H  0.42023444  0.49532241  0.93675512     0.13900
H1302       H  0.41990404  0.42596634  0.88333382     0.13900
H1303       H  0.45378180  0.25934364  0.63454660     0.13900
H1304       H  0.45550574  0.19202224  0.57709092     0.13900
H1305       H  0.45415121  0.38363485  0.53643045     0.27200
H1306       H  0.49043759  0.32075708  0.97965487     0.27200
N1307       N  0.48649086  0.39790507  0.79532340    -0.35600
N1308       N  0.49508417  0.40348386  0.70756958    -0.56200
N1309       N  0.52026797  0.29681277  0.70623706    -0.35600
N1310       N  0.52132955  0.29485685  0.79332081    -0.56200
C1311       C  0.49381780  0.44588488  0.78569987     0.28000
C1312       C  0.50836518  0.38923916  0.82999630     0.28000
C1313       C  0.53009736  0.31086513  0.66643864     0.28000
C1314       C  0.54311521  0.25291787  0.71106068     0.28000
C1315       C  0.46768958  0.44444757  0.71730616     0.36600
C1316       C  0.48318571  0.38938326  0.67039743     0.36600
C1317       C  0.51756992  0.30139279  0.83427750     0.36600
C1318       C  0.53515790  0.24774763  0.78704852     0.36600
C1319       C  0.52316000  0.46716667  0.81320460    -0.20900
C1320       C  0.53269001  0.43109872  0.84114044    -0.20900
C1321       C  0.56078026  0.27612404  0.64604740    -0.20900
C1322       C  0.56814215  0.23917741  0.67399783    -0.20900
C1323       C  0.43824049  0.45578646  0.68604962    -0.21900
C1324       C  0.44744355  0.42050274  0.65693412    -0.21900
C1325       C  0.53312912  0.25946246  0.85373185    -0.21900
C1326       C  0.54250256  0.22502658  0.82414941    -0.21900
C1327       C  0.47087138  0.47042773  0.75426033    -0.17300
C1328       C  0.50200910  0.34565197  0.85348446    -0.17300
C1329       C  0.54305722  0.22552010  0.74825931    -0.17300
C1330       C  0.50620058  0.35048636  0.64739145    -0.17300
H1331       H  0.53621307  0.50466739  0.81327145     0.15600
H1332       H  0.55406137  0.43541863  0.86722587     0.15600
H1333       H  0.57500911  0.27651428  0.61396745     0.15600
H1334       H  0.59020275  0.20637465  0.66790088     0.15600
H1335       H  0.41005990  0.48358718  0.68478137     0.13900
H1336       H  0.42791128  0.41642196  0.62985126     0.13900
H1337       H  0.53829532  0.25406885  0.88577477     0.13900
H1338       H  0.55464857  0.18798268  0.82975643     0.13900
H1339       H  0.46264571  0.37390882  0.78196393     0.27200
H1340       H  0.49446308  0.31360668  0.72746073     0.27200
N1341       N  0.77950688  0.41305693  0.55825347    -0.35600
N1342       N  0.72812694  0.40217200  0.96440300    -0.56200
N1343       N  0.72600361  0.29830477  0.96519234    -0.35600
N1344       N  0.76473386  0.30998367  0.55992421    -0.56200
C1345       C  0.79802548  0.45710644  0.54553655     0.28000
C1346       C  0.80073419  0.40103826  0.59291384     0.28000
C1347       C  0.72140820  0.30898950  0.92530789     0.28000
C1348       C  0.70744945  0.25270560  0.97316075     0.28000
C1349       C  0.73809199  0.44891452  0.97308053     0.36600
C1350       C  0.74953396  0.39437618  0.92608069     0.36600
C1351       C  0.76337002  0.31861861  0.60066089     0.36600
C1352       C  0.74606766  0.26451363  0.55578026     0.36600
C1353       C  0.83174950  0.47364273  0.57154437    -0.20900
C1354       C  0.83425192  0.43781925  0.60113798    -0.20900
C1355       C  0.69952982  0.26999571  0.90739508    -0.20900
C1356       C  0.69095433  0.23436764  0.93738697    -0.20900
C1357       C  0.76669145  0.47119475  0.94036299    -0.21900
C1358       C  0.77442800  0.43629521  0.91054570    -0.21900
C1359       C  0.74036030  0.27945244  0.62250955    -0.21900
C1360       C  0.73074708  0.24467811  0.59425422    -0.21900
C1361       C  0.78783681  0.48096470  0.50919284    -0.17300
C1362       C  0.78907917  0.35837213  0.61731253    -0.17300
C1363       C  0.74313999  0.24103826  0.51769070    -0.17300
C1364       C  0.74130435  0.35137811  0.90430441    -0.17300
H1365       H  0.85406057  0.50683253  0.56826038     0.15600
H1366       H  0.85939061  0.43871618  0.62494882     0.15600
H1367       H  0.69158044  0.26709114  0.87579792     0.15600
H1368       H  0.67476224  0.19893916  0.93260617     0.15600
H1369       H  0.78021085  0.50858993  0.93817055     0.13900
H1370       H  0.79474456  0.44164408  0.88057499     0.13900
H1371       H  0.73308083  0.27543967  0.65545258     0.13900
H1372       H  0.71354152  0.20938089  0.60154921     0.13900
H1373       H  0.75111452  0.39467927  0.54501934     0.27200
H1374       H  0.74669645  0.31883616  0.98394982     0.27200
N1375       N  0.77183761  0.42667446  0.69507831    -0.35600
N1376       N  0.82180232  0.30132009  0.71624243    -0.56200
N1377       N  0.78766596  0.29984993  0.80088056    -0.35600
N1378       N  0.75509067  0.40454880  0.79845078    -0.56200
C1379       C  0.81005138  0.39520284  0.68534179     0.28000
C1380       C  0.78538916  0.45370340  0.72657009     0.28000
C1381       C  0.81493940  0.25779055  0.79746907     0.28000
C1382       C  0.78431231  0.31295499  0.84072552     0.28000
C1383       C  0.82469178  0.30970413  0.67549579     0.36600
C1384       C  0.83014130  0.25349767  0.72202199     0.36600
C1385       C  0.73261325  0.44744324  0.78931645     0.36600
C1386       C  0.73248496  0.38801188  0.83458971     0.36600
C1387       C  0.84867753  0.40351252  0.70989992    -0.20900
C1388       C  0.83302127  0.44046184  0.73595769    -0.20900
C1389       C  0.82967720  0.24442786  0.83535561    -0.20900
C1390       C  0.81124676  0.27965126  0.86248453    -0.20900
C1391       C  0.83879239  0.26742002  0.65472052    -0.21900
C1392       C  0.84153559  0.23133184  0.68433032    -0.21900
C1393       C  0.69294856  0.45636574  0.81908250    -0.21900
C1394       C  0.69323226  0.41896236  0.84777477    -0.21900
C1395       C  0.80802722  0.35433171  0.65945432    -0.17300
C1396       C  0.75071179  0.47706840  0.75458671    -0.17300
C1397       C  0.75276186  0.35065165  0.85850412    -0.17300
C1398       C  0.82596462  0.23065792  0.76105068    -0.17300
H1399       H  0.88336065  0.38302037  0.71037171     0.15600
H1400       H  0.85222354  0.45311394  0.76139190     0.15600
H1401       H  0.85187849  0.21284900  0.84255948     0.15600
H1402       H  0.81598997  0.27977519  0.89486634     0.15600
H1403       H  0.84440564  0.26255923  0.62190943     0.13900
H1404       H  0.84972589  0.19321033  0.67833863     0.13900
H1405       H  0.66587363  0.48569793  0.82082638     0.13900
H1406       H  0.66835888  0.41577208  0.87585349     0.13900
H1407       H  0.73622835  0.42558451  0.68447660     0.27200
H1408       H  0.76749408  0.31567944  0.77844147     0.27200
C1409       C  0.79966385  0.14751677  0.78574239    -0.15400
C1410       C  0.83231882  0.17651184  0.76280966    -0.30600
H1411       H  0.77279029  0.16301836  0.80906445     0.13600
H1412       H  0.85896787  0.15948295  0.74018118     0.14200
C1413       C  0.75913504  0.85714601  0.73726335    -0.15400
C1414       C  0.71819706  0.83663829  0.75826376    -0.30600
H1415       H  0.78133631  0.83703781  0.71355305     0.13600
H1416       H  0.69640360  0.85839106  0.78106133     0.14200
C1417       C  0.74034930  0.18592194  0.51686538    -0.15400
C1418       C  0.76270614  0.16056903  0.48495620    -0.30600
H1419       H  0.66843386  0.15936761  0.99152955     0.13600
H1420       H  0.78038225  0.18027686  0.45831663     0.14200
C1421       C  0.81980164  0.83333423  0.48734546    -0.15400
C1422       C  0.79252708  0.86026975  0.46277089    -0.30600
H1423       H  0.77978038  0.82620820  0.02144789     0.13600
H1424       H  0.77313183  0.84260804  0.43940100     0.14200
C1425       C  0.55572849  0.17201111  0.74789655    -0.15400
C1426       C  0.53016400  0.13868658  0.72833555    -0.30600
H1427       H  0.09368183  0.15476669  0.70101724     0.13600
H1428       H  0.50457561  0.15051107  0.70637340     0.14200
C1429       C  0.03487773  0.84376984  0.77672596    -0.15400
C1430       C  0.06296835  0.81246419  0.75276650    -0.30600
H1431       H  0.00655629  0.82967854  0.80002790     0.13600
H1432       H  0.58861970  0.81992283  0.73854066     0.14200
C1433       C  0.44148891  0.17766261  0.01434359    -0.15400
C1434       C  0.47232353  0.14919020  0.99005468    -0.30600
H1435       H  0.41766938  0.16088024  0.03950308     0.13600
H1436       H  0.99037208  0.16848474  0.49976728     0.14200
C1437       C  0.97534895  0.83088041  0.49759255    -0.15400
C1438       C  0.01090204  0.85611757  0.47425010    -0.30600
H1439       H  0.94967244  0.85021309  0.51949315     0.13600
H1440       H  0.48756298  0.83503771  0.04800072     0.14200
loop_ 
_geom_bond_atom_site_label_1 
_geom_bond_atom_site_label_2 
_geom_bond_distance 
_geom_bond_site_symmetry_2 
_ccdc_geom_bond_type 
O1           Cu9   2.024       .  S
O1          C371   1.280   1_554  A
O2           Cu9   2.008   1_565  S
O2          C732   1.276       .  A
O3           Cu9   1.985   1_455  S
O3           C13   1.275   1_544  A
O4         Cu729   2.006       .  S
O4           C14   1.278       .  A
O5          Cu10   1.975       .  S
O5          C374   1.275       .  A
O6         Cu730   2.000   1_565  S
O6          C373   1.278       .  A
O7          Cu10   2.029       .  S
O7          C372   1.282       .  A
O8          Cu10   2.024   1_545  S
O8          C731   1.279       .  A
Cu9         O724   1.973       .  S
Cu9       Cu1090   2.376   1_544  S
Cu10        O726   1.993       .  S
Cu10      Cu1089   2.377   1_565  S
C11         O361   1.276       .  A
C11         O728   1.275       .  A
C11         C354   1.456       .  S
C12         O722   1.273       .  A
C12         O367   1.277   1_554  A
C12         C358   1.452       .  S
C13         O366   1.278       .  A
C13          C39   1.459       .  S
C14         O365   1.273   1_544  A
C14          C40   1.449   1_545  S
O15         Cu23   2.014   1_545  S
O15          C25   1.278       .  A
O16         Cu23   2.025   1_455  S
O16          C26   1.279       .  A
O17         Cu23   2.005   1_445  S
O17          C27   1.277       .  A
O18        Cu743   1.996       .  S
O18          C28   1.274       .  A
O19         Cu24   2.019   1_565  S
O19          C28   1.280       .  A
O20        Cu744   1.984   1_545  S
O20          C27   1.275       .  A
O21        Cu744   2.030       .  S
O21          C26   1.280       .  A
O22         Cu24   2.000       .  S
O22         C745   1.277       .  A
Cu23        O738   2.013       .  S
Cu23       Cu744   2.375   1_655  S
Cu24        O740   2.024       .  S
Cu24        O741   1.999   1_545  S
Cu24       Cu743   2.376   1_545  S
C25         O742   1.278       .  A
C25         C346   1.476       .  S
C26        C1069   1.486       .  S
C27          C53   1.456       .  S
C28          C54   1.466       .  S
O29         Cu37   1.985       .  S
O29         C399   1.274       .  A
O30         Cu37   1.968       .  S
O30         C400   1.273       .  A
O31         Cu37   2.023       .  S
O31         C401   1.279       .  A
O32         Cu37   2.021   1_545  S
O32         C402   1.279       .  A
O33         Cu38   2.021   1_545  S
O33          C42   1.279   1_554  A
O34         Cu38   2.028       .  S
O34          C41   1.280       .  A
O35         Cu38   1.997       .  S
O35          C40   1.275       .  A
O36         Cu38   1.993       .  S
O36          C39   1.276   1_554  A
Cu37       Cu398   2.377       .  S
Cu38       Cu397   2.378   1_554  S
C39         O389   1.276       .  A
C40         O390   1.275   1_554  A
C41         O391   1.277   1_554  A
C41         C342   1.478       .  S
C42         O392   1.276       .  A
C42         C338   1.471       .  S
O43         Cu51   1.991       .  S
O43          C53   1.276       .  A
O44         Cu51   1.991   1_565  S
O44          C54   1.274       .  A
O45         Cu51   2.015   1_565  S
O45          C55   1.278       .  A
O46         Cu51   2.005       .  S
O46          C56   1.278       .  A
O47         Cu52   1.993   1_545  S
O47          C56   1.274       .  A
O48         Cu52   1.993       .  S
O48          C55   1.275       .  A
O49         Cu52   2.020       .  S
O49          C54   1.281       .  A
O50         Cu52   1.997   1_545  S
O50          C53   1.276       .  A
Cu51        Cu52   2.379   1_545  S
C55         C333   1.466       .  S
C56         C329   1.461       .  S
N57          C62   1.351       .  A
N57          C61   1.343       .  A
N57          H89   1.045       .  S
N58          C65   1.362       .  A
N58          C66   1.350       .  A
N59          C64   1.357       .  A
N59          C63   1.358       .  A
N59          H90   1.042       .  S
N60          C67   1.351       .  A
N60          C68   1.348       .  A
C61          C69   1.390       .  A
C61         C437   1.403       .  A
C62          C78   1.389       .  A
C62          C70   1.382       .  A
C63          C71   1.389       .  A
C63          C80   1.421       .  A
C64          C79   1.418       .  A
C64          C72   1.385       .  A
C65          C77   1.431       .  A
C65          C73   1.382       .  A
C66          C80   1.422       .  A
C66          C74   1.383       .  A
C67          C75   1.387       .  A
C67          C78   1.416       .  A
C68          C76   1.385       .  A
C68         C439   1.406       .  A
C69          C70   1.376       .  A
C69          H81   1.083       .  S
C70          H82   1.081       .  S
C71          C72   1.371       .  A
C71          H83   1.082       .  S
C72          H84   1.083       .  S
C73          C74   1.363       .  A
C73          H85   1.067       .  S
C74          H86   1.078       .  S
C75          C76   1.375       .  A
C75          H87   1.081       .  S
C76          H88   1.082       .  S
C77        C1293   1.532   1_554  S
C77         C421   1.398   1_554  A
C78         C114   1.513       .  S
C79         C357   1.476       .  S
C79         C428   1.406   1_554  A
C80         C112   1.499       .  S
N91          C96   1.348       .  A
N91          C95   1.339       .  A
N91         H123   1.045       .  S
N92          C99   1.348       .  A
N92         C100   1.345       .  A
N93          C98   1.356       .  A
N93          C97   1.356       .  A
N93         H124   1.043       .  S
N94         C101   1.350       .  A
N94         C102   1.345       .  A
C95         C103   1.383       .  A
C95         C111   1.388       .  A
C96         C112   1.390       .  A
C96         C104   1.380       .  A
C97         C105   1.385       .  A
C97         C114   1.418       .  A
C98         C113   1.420       .  A
C98         C106   1.389       .  A
C99         C111   1.400       .  A
C99         C107   1.376       .  A
C100        C114   1.421       .  A
C100        C108   1.394       .  A
C101        C109   1.382       .  A
C101        C112   1.405       .  A
C102        C110   1.391       .  A
C102        C113   1.417       .  A
C103        C104   1.377       .  A
C103        H115   1.079       .  S
C104        H116   1.083       .  S
C105        C106   1.373       .  A
C105        H117   1.081       .  S
C106        H118   1.082       .  S
C107        C108   1.373       .  A
C107        H119   1.082       .  S
C108        H120   1.071       .  S
C109        C110   1.383       .  A
C109        H121   1.082       .  S
C110        H122   1.082       .  S
C111        C967   1.517       .  S
C113        C350   1.493       .  S
N125        C130   1.340       .  A
N125        C129   1.355       .  A
N125        H157   1.043       .  S
N126        C133   1.356       .  A
N126        C134   1.349       .  A
N127        C132   1.354       .  A
N127        C131   1.348       .  A
N127        H158   1.042       .  S
N128        C135   1.340       .  A
N128        C136   1.347       .  A
C129        C137   1.394       .  A
C129        C145   1.420       .  A
C130        C138   1.381       .  A
C130        C506   1.399       .  A
C131        C139   1.388       .  A
C131        C148   1.415   1_554  A
C132        C147   1.415       .  A
C132        C140   1.385       .  A
C133        C145   1.425       .  A
C133        C141   1.385       .  A
C134        C142   1.388       .  A
C134        C508   1.418       .  A
C135        C143   1.385       .  A
C135        C146   1.395   1_554  A
C136        C144   1.388       .  A
C136        C147   1.407       .  A
C137        C138   1.379       .  A
C137        H149   1.078       .  S
C138        H150   1.083       .  S
C139        C140   1.379       .  A
C139        H151   1.082       .  S
C140        H152   1.082       .  S
C141        C142   1.380       .  A
C141        H153   1.082       .  S
C142        H154   1.081       .  S
C143        C144   1.371       .  A
C143        H155   1.082       .  S
C144        H156   1.082       .  S
C145        C181   1.525       .  S
C146        C281   1.498       .  S
C146        C490   1.405       .  A
C147        C179   1.507       .  S
C148        C341   1.497       .  S
C148        C494   1.418       .  A
N159        C164   1.360       .  A
N159        C163   1.351       .  A
N159        H191   1.040       .  S
N160        C167   1.349       .  A
N160        C168   1.348       .  A
N161        C166   1.352       .  A
N161        C165   1.352       .  A
N161        H192   1.037       .  S
N162        C169   1.359       .  A
N162        C170   1.355       .  A
C163        C171   1.381       .  A
C163        C179   1.419       .  A
C164        C180   1.438       .  A
C164        C172   1.397       .  A
C165        C173   1.394       .  A
C165        C182   1.427       .  A
C166        C181   1.419       .  A
C166        C174   1.381       .  A
C167        C179   1.414       .  A
C167        C175   1.388       .  A
C168        C182   1.408       .  A
C168        C176   1.383       .  A
C169        C177   1.382       .  A
C169        C180   1.405       .  A
C170        C178   1.389       .  A
C170        C181   1.413       .  A
C171        C172   1.375       .  A
C171        H183   1.083       .  S
C172        H184   1.074       .  S
C173        C174   1.374       .  A
C173        H185   1.076       .  S
C174        H186   1.081       .  S
C175        C176   1.375       .  A
C175        H187   1.082       .  S
C176        H188   1.082       .  S
C177        C178   1.370       .  A
C177        H189   1.082       .  S
C178        H190   1.083       .  S
C180        C316   1.524       .  S
C182        C334   1.490       .  S
N193        C198   1.354       .  A
N193        C197   1.357       .  A
N193        H225   1.044   1_455  S
N194        C201   1.350       .  A
N194        C202   1.346       .  A
N195        C200   1.351       .  A
N195        C199   1.350       .  A
N195        H226   1.042       .  S
N196        C203   1.349       .  A
N196        C204   1.347       .  A
C197        C205   1.389       .  A
C197        C573   1.424   1_554  A
C198        C214   1.416   1_455  A
C198        C206   1.380       .  A
C199        C207   1.386       .  A
C199        C216   1.413       .  A
C200        C215   1.414       .  A
C200        C208   1.388       .  A
C201        C213   1.420       .  A
C201        C209   1.392   1_455  A
C202        C216   1.406       .  A
C202        C210   1.381   1_455  A
C203        C211   1.383       .  A
C203        C214   1.409       .  A
C204        C212   1.389       .  A
C204        C575   1.410   1_554  A
C205        C206   1.373       .  A
C205        H217   1.066       .  S
C206        H218   1.082       .  S
C207        C208   1.381       .  A
C207        H219   1.082       .  S
C208        H220   1.082       .  S
C209        C210   1.374       .  A
C209        H221   1.076       .  S
C210        H222   1.082       .  S
C211        C212   1.370       .  A
C211        H223   1.080       .  S
C212        H224   1.080       .  S
C213       C1157   1.522       .  S
C213        C557   1.423       .  A
C214        C250   1.505       .  S
C215        C353   1.481       .  S
C215        C564   1.415       .  A
C216        C248   1.497       .  S
N227        C232   1.351       .  A
N227        C231   1.350       .  A
N227        H259   1.043   1_455  S
N228        C235   1.352       .  A
N228        C236   1.347       .  A
N229        C234   1.352       .  A
N229        C233   1.353       .  A
N229        H260   1.043       .  S
N230        C237   1.346   1_455  A
N230        C238   1.349   1_455  A
C231        C239   1.388       .  A
C231        C247   1.418   1_455  A
C232        C248   1.414       .  A
C232        C240   1.387       .  A
C233        C241   1.388   1_655  A
C233        C250   1.418       .  A
C234        C249   1.414       .  A
C234        C242   1.386   1_655  A
C235        C247   1.422       .  A
C235        C243   1.389       .  A
C236        C250   1.408       .  A
C236        C244   1.380       .  A
C237        C245   1.385       .  A
C237        C248   1.408   1_655  A
C238        C246   1.387       .  A
C238        C249   1.414       .  A
C239        C240   1.380       .  A
C239        H251   1.081       .  S
C240        H252   1.082       .  S
C241        C242   1.381       .  A
C241        H253   1.082       .  S
C242        H254   1.082       .  S
C243        C244   1.375       .  A
C243        H255   1.071       .  S
C244        H256   1.082       .  S
C245        C246   1.378       .  A
C245        H257   1.082       .  S
C246        H258   1.081       .  S
C247        C831   1.510       .  S
C249        C345   1.498       .  S
N261        C266   1.359       .  A
N261        C265   1.345       .  A
N261        H293   1.041       .  S
N262        C269   1.343       .  A
N262        C270   1.352       .  A
N263        C268   1.349       .  A
N263        C267   1.358       .  A
N263        H294   1.041       .  S
N264        C271   1.358       .  A
N264        C272   1.352       .  A
C265        C273   1.382       .  A
C265        C281   1.409   1_554  A
C266        C282   1.425       .  A
C266        C274   1.392       .  A
C267        C275   1.383       .  A
C267        C284   1.417       .  A
C268        C276   1.390       .  A
C268        C643   1.421       .  A
C269        C277   1.387       .  A
C269        C641   1.406       .  A
C270        C284   1.411       .  A
C270        C278   1.385       .  A
C271        C279   1.384       .  A
C271        C282   1.428       .  A
C272        C280   1.390       .  A
C272        C283   1.425       .  A
C273        C274   1.379       .  A
C273        H285   1.079       .  S
C274        H286   1.079       .  S
C275        C276   1.378       .  A
C275        H287   1.082       .  S
C276        H288   1.082       .  S
C277        C278   1.369       .  A
C277        H289   1.082       .  S
C278        H290   1.082       .  S
C279        C280   1.377       .  A
C279        H291   1.082       .  S
C280        H292   1.080       .  S
C281        C629   1.399       .  A
C282        C315   1.529       .  S
C283        C337   1.499       .  S
C283        C628   1.429   1_554  A
C284        C317   1.515       .  S
N295        C300   1.359       .  A
N295        C299   1.353       .  A
N295        H327   1.045       .  S
N296        C303   1.352       .  A
N296        C304   1.340       .  A
N297        C302   1.359       .  A
N297        C301   1.354       .  A
N297        H328   1.042       .  S
N298        C305   1.355       .  A
N298        C306   1.348       .  A
C299        C307   1.392       .  A
C299        C315   1.418       .  A
C300        C316   1.400       .  A
C300        C308   1.380       .  A
C301        C309   1.383       .  A
C301        C318   1.419       .  A
C302        C317   1.423       .  A
C302        C310   1.387       .  A
C303        C315   1.416       .  A
C303        C311   1.383       .  A
C304        C318   1.411       .  A
C304        C312   1.391       .  A
C305        C313   1.392       .  A
C305        C316   1.429       .  A
C306        C314   1.384       .  A
C306        C317   1.418       .  A
C307        C308   1.370       .  A
C307        H319   1.083       .  S
C308        H320   1.083       .  S
C309        C310   1.374       .  A
C309        H321   1.081       .  S
C310        H322   1.081       .  S
C311        C312   1.378       .  A
C311        H323   1.082       .  S
C312        H324   1.081       .  S
C313        C314   1.379       .  A
C313        H325   1.077       .  S
C314        H326   1.083       .  S
C318        C330   1.484       .  S
C329        C330   1.343       .  D
C329        H331   1.086       .  S
C330        H332   1.086       .  S
C333        C334   1.333       .  D
C333        H335   1.085       .  S
C334        H336   1.087       .  S
C337        C338   1.346   1_554  D
C337        H699   1.084       .  S
C338        H340   1.086       .  S
H339        C697   1.084       .  S
C341        C342   1.353   1_556  D
C341        H703   1.085       .  S
C342        H344   1.086       .  S
H343        C701   1.084       .  S
C345        C346   1.347       .  D
C345       H1067   1.087       .  S
C346        H348   1.083   1_655  S
H347       C1065   1.087       .  S
C349        C746   1.474       .  S
C349        C350   1.342       .  D
C349        H351   1.086       .  S
C350       H1072   1.087       .  S
H352       C1070   1.083       .  S
C353        C354   1.336       .  D
C353        H355   1.086       .  S
C354       H1436   1.086   1_455  S
H356       C1434   1.087       .  S
C357        C358   1.340       .  D
C357        H359   1.087   1_554  S
C358       H1440   1.086       .  S
H360       C1438   1.087       .  S
O361       Cu369   1.996       .  S
O362       Cu369   1.999   1_565  S
O362       C1092   1.277       .  A
O363       Cu369   1.999   1_565  S
O363        C373   1.276       .  A
O364      Cu1089   2.014   1_565  S
O364        C374   1.277       .  A
O365       Cu370   1.965       .  S
O366      Cu1090   2.013   1_455  S
O367       Cu370   1.988       .  S
O368       Cu370   1.998   1_545  S
O368       C1091   1.275       .  A
Cu369      O1084   1.971   1_455  S
Cu369      Cu730   2.381       .  S
Cu370      O1086   1.977       .  S
Cu370      Cu729   2.380   1_566  S
C371       O1088   1.275       .  A
C371        C714   1.472       .  S
C372       O1082   1.275       .  A
C372        C718   1.478       .  S
C373        C399   1.459       .  S
C374        C400   1.457       .  S
O375       Cu383   2.015   1_545  S
O375        C385   1.278       .  A
O376       Cu383   2.012       .  S
O376        C386   1.276       .  A
O377       Cu383   2.005       .  S
O377        C387   1.278       .  A
O378      Cu1103   1.990       .  S
O378        C388   1.275       .  A
O379       Cu384   2.005       .  S
O379        C388   1.277       .  A
O380      Cu1104   1.975       .  S
O380        C387   1.273       .  A
O381      Cu1104   2.044       .  S
O381        C386   1.283       .  A
O382       Cu384   2.026   1_545  S
O382       C1105   1.278       .  A
Cu383      O1098   1.998   1_455  S
Cu383     Cu1104   2.376       .  S
Cu384      O1100   2.000       .  S
Cu384      O1101   2.040       .  S
Cu384     Cu1103   2.375       .  S
C385       O1102   1.280       .  A
C385        C706   1.483       .  S
C386       C1429   1.483       .  S
C387        C413   1.452       .  S
C388        C414   1.457       .  S
O389       Cu397   2.004       .  S
O390       Cu397   1.974       .  S
O391       Cu397   2.008       .  S
O392       Cu397   1.999   1_545  S
O393       Cu398   2.004   1_545  S
O393        C402   1.277       .  A
O394       Cu398   2.003       .  S
O394        C401   1.276       .  A
O395       Cu398   2.024       .  S
O395        C400   1.279       .  A
O396       Cu398   2.011       .  S
O396        C399   1.279       .  A
C401        C702   1.473       .  S
C402        C698   1.474       .  S
O403       Cu411   2.000   1_545  S
O403        C413   1.278   1_545  A
O404       Cu411   1.994       .  S
O404        C414   1.275       .  A
O405       Cu411   2.001       .  S
O405        C415   1.275       .  A
O406       Cu411   2.009   1_545  S
O406        C416   1.278       .  A
O407       Cu412   2.014   1_545  S
O407        C416   1.277       .  A
O408       Cu412   2.023       .  S
O408        C415   1.281       .  A
O409       Cu412   2.001       .  S
O409        C414   1.277       .  A
O410       Cu412   1.980       .  S
O410        C413   1.273       .  A
Cu411      Cu412   2.379       .  S
C415        C693   1.471       .  S
C416        C689   1.474       .  S
N417        C422   1.352       .  A
N417        C421   1.355       .  A
N417        H449   1.045       .  S
N418        C425   1.354       .  A
N418        C426   1.350       .  A
N419        C424   1.353       .  A
N419        C423   1.352       .  A
N419        H450   1.044       .  S
N420        C427   1.349       .  A
N420        C428   1.336       .  A
C421        C429   1.383       .  A
C422        C438   1.408       .  A
C422        C430   1.389       .  A
C423        C431   1.386       .  A
C423        C440   1.416       .  A
C424        C439   1.419       .  A
C424        C432   1.389       .  A
C425        C437   1.413       .  A
C425        C433   1.368       .  A
C426        C440   1.425       .  A
C426        C434   1.388       .  A
C427        C435   1.383       .  A
C427        C438   1.409       .  A
C428        C436   1.392       .  A
C429        C430   1.364       .  A
C429        H441   1.081   1_556  S
C430        H442   1.082       .  S
C431        C432   1.382       .  A
C431        H443   1.082       .  S
C432        H444   1.081       .  S
C433        C434   1.364       .  A
C433        H445   1.069       .  S
C434        H446   1.074       .  S
C435        C436   1.378       .  A
C435        H447   1.082       .  S
C436        H448   1.081       .  S
C437        C933   1.533       .  S
C438        C474   1.511       .  S
C439        C717   1.495       .  S
C440        C472   1.513       .  S
N451        C456   1.350       .  A
N451        C455   1.344       .  A
N451        H483   1.045       .  S
N452        C459   1.351       .  A
N452        C460   1.347       .  A
N453        C458   1.364       .  A
N453        C457   1.359       .  A
N453        H484   1.040       .  S
N454        C461   1.351       .  A
N454        C462   1.344       .  A
C455        C463   1.385       .  A
C455        C471   1.389       .  A
C456        C472   1.398       .  A
C456        C464   1.383       .  A
C457        C465   1.388       .  A
C457        C474   1.434       .  A
C458        C473   1.434       .  A
C458        C466   1.385       .  A
C459        C471   1.400       .  A
C459        C467   1.376       .  A
C460        C474   1.423       .  A
C460        C468   1.396       .  A
C461        C469   1.382       .  A
C461        C472   1.411       .  A
C462        C470   1.393       .  A
C462        C473   1.420       .  A
C463        C464   1.378       .  A
C463        H475   1.081       .  S
C464        H476   1.082       .  S
C465        C466   1.379       .  A
C465        H477   1.082       .  S
C466        H478   1.081       .  S
C467        C468   1.377       .  A
C467        H479   1.082       .  S
C468        H480   1.078       .  S
C469        C470   1.379       .  A
C469        H481   1.081       .  S
C470        H482   1.080       .  S
C471       C1327   1.523       .  S
C473        C710   1.508       .  S
N485        C490   1.344       .  A
N485        C489   1.355       .  A
N485        H517   1.042       .  S
N486        C493   1.355       .  A
N486        C494   1.351       .  A
N487        C492   1.359       .  A
N487        C491   1.351       .  A
N487        H518   1.042       .  S
N488        C495   1.343       .  A
N488        C496   1.348       .  A
C489        C497   1.392       .  A
C489        C505   1.421       .  A
C490        C498   1.383       .  A
C491        C499   1.388       .  A
C491        C508   1.421       .  A
C492        C507   1.420       .  A
C492        C500   1.385       .  A
C493        C505   1.428       .  A
C493        C501   1.387       .  A
C494        C502   1.386       .  A
C495        C503   1.383       .  A
C495        C506   1.400       .  A
C496        C504   1.390       .  A
C496        C507   1.416       .  A
C497        C498   1.379       .  A
C497        H509   1.080       .  S
C498        H510   1.083       .  S
C499        C500   1.378       .  A
C499        H511   1.082       .  S
C500        H512   1.082       .  S
C501        C502   1.379       .  A
C501        H513   1.082       .  S
C502        H514   1.081       .  S
C503        C504   1.375       .  A
C503        H515   1.080       .  S
C504        H516   1.082       .  S
C505        C541   1.524       .  S
C506        C641   1.501       .  S
C507        C539   1.515       .  S
C508        C701   1.500       .  S
N519        C524   1.365       .  A
N519        C523   1.353       .  A
N519        H551   1.039       .  S
N520        C527   1.351       .  A
N520        C528   1.352       .  A
N521        C526   1.348       .  A
N521        C525   1.346       .  A
N521        H552   1.036       .  S
N522        C529   1.361       .  A
N522        C530   1.356       .  A
C523        C531   1.383       .  A
C523        C539   1.426       .  A
C524        C540   1.443       .  A
C524        C532   1.395       .  A
C525        C533   1.392       .  A
C525        C542   1.416       .  A
C526        C541   1.414       .  A
C526        C534   1.384       .  A
C527        C539   1.423       .  A
C527        C535   1.389       .  A
C528        C542   1.418       .  A
C528        C536   1.382       .  A
C529        C537   1.382       .  A
C529        C540   1.405       .  A
C530        C538   1.389       .  A
C530        C541   1.417       .  A
C531        C532   1.376       .  A
C531        H543   1.083       .  S
C532        H544   1.075       .  S
C533        C534   1.381       .  A
C533        H545   1.081       .  S
C534        H546   1.082       .  S
C535        C536   1.378       .  A
C535        H547   1.081       .  S
C536        H548   1.082       .  S
C537        C538   1.370       .  A
C537        H549   1.083       .  S
C538        H550   1.083       .  S
C540        C676   1.536       .  S
C542        C694   1.488       .  S
N553        C558   1.351       .  A
N553        C557   1.350       .  A
N553        H585   1.045       .  S
N554        C561   1.360       .  A
N554        C562   1.355       .  A
N555        C560   1.357   1_455  A
N555        C559   1.354       .  A
N555        H586   1.041       .  S
N556        C563   1.348       .  A
N556        C564   1.345       .  A
C557        C565   1.392       .  A
C558        C574   1.416       .  A
C558        C566   1.384       .  A
C559        C567   1.390   1_455  A
C559        C576   1.421       .  A
C560        C575   1.418       .  A
C560        C568   1.384       .  A
C561        C573   1.431       .  A
C561        C569   1.395   1_455  A
C562        C576   1.405       .  A
C562        C570   1.374   1_455  A
C563        C571   1.384       .  A
C563        C574   1.410       .  A
C564        C572   1.391       .  A
C565        C566   1.392       .  A
C565        H577   1.082       .  S
C566        H578   1.082       .  S
C567        C568   1.373       .  A
C567        H579   1.082       .  S
C568        H580   1.082       .  S
C569        C570   1.361       .  A
C569        H581   1.072       .  S
C570        H582   1.082       .  S
C571        C572   1.374       .  A
C571        H583   1.082       .  S
C572        H584   1.079       .  S
C573        C797   1.532       .  S
C574        C610   1.511       .  S
C575        C713   1.494       .  S
C576        C608   1.530       .  S
N587        C592   1.352       .  A
N587        C591   1.354       .  A
N587        H619   1.045       .  S
N588        C595   1.356   1_455  A
N588        C596   1.351       .  A
N589        C594   1.355       .  A
N589        C593   1.355       .  A
N589        H620   1.042       .  S
N590        C597   1.351       .  A
N590        C598   1.351       .  A
C591        C599   1.387       .  A
C591        C607   1.418       .  A
C592        C608   1.416       .  A
C592        C600   1.385       .  A
C593        C601   1.389       .  A
C593        C610   1.423       .  A
C594        C609   1.413       .  A
C594        C602   1.382       .  A
C595        C607   1.425   1_655  A
C595        C603   1.388       .  A
C596        C610   1.415       .  A
C596        C604   1.381   1_455  A
C597        C605   1.386       .  A
C597        C608   1.415       .  A
C598        C606   1.386       .  A
C598        C609   1.414       .  A
C599        C600   1.376       .  A
C599        H611   1.080       .  S
C600        H612   1.082       .  S
C601        C602   1.381       .  A
C601        H613   1.082       .  S
C602        H614   1.081       .  S
C603        C604   1.378       .  A
C603        H615   1.073       .  S
C604        H616   1.082       .  S
C605        C606   1.373       .  A
C605        H617   1.082       .  S
C606        H618   1.082       .  S
C607       C1191   1.522   1_455  S
C609        C705   1.507       .  S
N621        C626   1.358       .  A
N621        C625   1.346       .  A
N621        H653   1.043       .  S
N622        C629   1.340       .  A
N622        C630   1.347       .  A
N623        C628   1.352       .  A
N623        C627   1.361       .  A
N623        H654   1.040       .  S
N624        C631   1.359       .  A
N624        C632   1.354       .  A
C625        C633   1.384       .  A
C625        C641   1.407       .  A
C626        C642   1.422       .  A
C626        C634   1.391       .  A
C627        C635   1.382       .  A
C627        C644   1.421       .  A
C628        C636   1.392       .  A
C629        C637   1.386       .  A
C630        C644   1.409       .  A
C630        C638   1.389       .  A
C631        C639   1.385       .  A
C631        C642   1.430       .  A
C632        C640   1.388       .  A
C632        C643   1.424       .  A
C633        C634   1.378       .  A
C633        H645   1.083       .  S
C634        H646   1.080       .  S
C635        C636   1.378       .  A
C635        H647   1.083       .  S
C636        H648   1.082       .  S
C637        C638   1.373       .  A
C637        H649   1.082       .  S
C638        H650   1.082       .  S
C639        C640   1.376       .  A
C639        H651   1.082       .  S
C640        H652   1.080       .  S
C642        C675   1.529       .  S
C643        C697   1.496       .  S
C644        C677   1.510       .  S
N655        C660   1.363       .  A
N655        C659   1.355       .  A
N655        H687   1.045       .  S
N656        C663   1.348       .  A
N656        C664   1.339       .  A
N657        C662   1.356       .  A
N657        C661   1.361       .  A
N657        H688   1.042       .  S
N658        C665   1.364       .  A
N658        C666   1.351       .  A
C659        C667   1.389       .  A
C659        C675   1.423       .  A
C660        C676   1.401       .  A
C660        C668   1.379       .  A
C661        C669   1.384       .  A
C661        C678   1.424       .  A
C662        C677   1.423       .  A
C662        C670   1.389       .  A
C663        C675   1.413       .  A
C663        C671   1.383       .  A
C664        C678   1.413       .  A
C664        C672   1.393       .  A
C665        C673   1.390       .  A
C665        C676   1.439       .  A
C666        C674   1.385       .  A
C666        C677   1.425       .  A
C667        C668   1.366       .  A
C667        H679   1.082       .  S
C668        H680   1.083       .  S
C669        C670   1.376       .  A
C669        H681   1.082       .  S
C670        H682   1.082       .  S
C671        C672   1.381       .  A
C671        H683   1.082       .  S
C672        H684   1.080       .  S
C673        C674   1.378       .  A
C673        H685   1.076       .  S
C674        H686   1.083       .  S
C678        C690   1.494       .  S
C689        C690   1.346       .  D
C689        H691   1.085       .  S
C690        H692   1.084       .  S
C693        C694   1.346       .  D
C693        H695   1.086       .  S
C694        H696   1.086       .  S
C697        C698   1.350       .  D
C698        H700   1.086       .  S
C701        C702   1.349       .  D
C702        H704   1.086       .  S
C705        C706   1.354       .  D
C705       H1427   1.085       .  S
C706        H708   1.086       .  S
H707       C1425   1.086       .  S
C709       C1106   1.489       .  S
C709        C710   1.349       .  D
C709        H711   1.085       .  S
C710       H1432   1.083       .  S
H712       C1430   1.085       .  S
C713        C714   1.344       .  D
C713        H715   1.085   1_556  S
C714       H1076   1.086   1_655  S
H716       C1074   1.085       .  S
C717        C718   1.343       .  D
C717        H719   1.087       .  S
C718       H1080   1.085       .  S
H720       C1078   1.085       .  S
O721       Cu729   2.008       .  S
O721       C1091   1.279   1_554  A
O722       Cu729   1.988   1_565  S
O723       Cu729   2.018       .  S
O723        C733   1.279   1_545  A
O724        C734   1.273   1_544  A
O725       Cu730   2.015   1_655  S
O725       C1094   1.278       .  A
O726       C1093   1.274   1_565  A
O727       Cu730   1.995   1_565  S
O727       C1092   1.275       .  A
O728       Cu730   1.999       .  S
C731       O1081   1.278       .  A
C731       C1074   1.480       .  S
C732       O1087   1.277   1_554  A
C732       C1078   1.465       .  S
C733       O1086   1.274   1_554  A
C733        C759   1.458       .  S
C734       O1085   1.277       .  A
C734        C760   1.450       .  S
O735       Cu743   2.022   1_545  S
O735        C745   1.280       .  A
O736       Cu743   2.027       .  S
O736        C746   1.281       .  A
O737       Cu743   1.974       .  S
O737        C747   1.273   1_565  A
O738        C748   1.278       .  A
O739       Cu744   1.995   1_655  S
O739        C748   1.276       .  A
O740        C747   1.280       .  A
O741        C746   1.275       .  A
O742       Cu744   2.015   1_645  S
C745       C1066   1.478       .  S
C747        C773   1.460       .  S
C748        C774   1.463       .  S
O749       Cu757   2.016       .  S
O749       C1119   1.279       .  A
O750       Cu757   2.018       .  S
O750       C1120   1.278       .  A
O751       Cu757   2.013   1_565  S
O751       C1121   1.276       .  A
O752       Cu757   2.014       .  S
O752       C1122   1.278       .  A
O753       Cu758   2.015   1_545  S
O753        C762   1.277       .  A
O754       Cu758   2.044       .  S
O754        C761   1.282   1_554  A
O755       Cu758   1.979       .  S
O755        C760   1.275   1_554  A
O756       Cu758   2.013       .  S
O756        C759   1.278       .  A
Cu757     Cu1118   2.375       .  S
Cu758     Cu1117   2.376   1_564  S
C759       O1109   1.275   1_554  A
C760       O1110   1.275   1_565  A
C761       O1111   1.280       .  A
C761       C1062   1.496       .  S
C762       O1112   1.281   1_554  A
C762       C1058   1.479       .  S
O763       Cu771   2.009       .  S
O763        C773   1.276       .  A
O764       Cu771   1.995   1_565  S
O764        C774   1.276       .  A
O765       Cu771   2.011   1_565  S
O765        C775   1.278       .  A
O766       Cu771   2.024       .  S
O766        C776   1.281       .  A
O767       Cu772   1.991       .  S
O767        C776   1.273       .  A
O768       Cu772   1.979   1_565  S
O768        C775   1.273       .  A
O769       Cu772   2.013   1_565  S
O769        C774   1.278       .  A
O770       Cu772   1.985       .  S
O770        C773   1.277       .  A
Cu771      Cu772   2.379       .  S
C775       C1053   1.458       .  S
C776       C1049   1.467       .  S
N777        C782   1.354   1_455  A
N777        C781   1.355   1_455  A
N777        H809   1.045       .  S
N778        C785   1.355       .  A
N778        C786   1.344       .  A
N779        C784   1.356       .  A
N779        C783   1.357       .  A
N779        H810   1.043       .  S
N780        C787   1.358       .  A
N780        C788   1.343       .  A
C781        C789   1.385       .  A
C781       C1157   1.401   1_655  A
C782        C798   1.401       .  A
C782        C790   1.385       .  A
C783        C791   1.388       .  A
C783        C800   1.422   1_655  A
C784        C799   1.421   1_554  A
C784        C792   1.385       .  A
C785        C797   1.418   1_554  A
C785        C793   1.383       .  A
C786        C800   1.408       .  A
C786        C794   1.383       .  A
C787        C795   1.382       .  A
C787        C798   1.418       .  A
C788        C796   1.392       .  A
C788       C1159   1.420       .  A
C789        C790   1.362       .  A
C789        H801   1.083       .  S
C790        H802   1.081       .  S
C791        C792   1.378       .  A
C791        H803   1.082       .  S
C792        H804   1.082       .  S
C793        C794   1.385       .  A
C793        H805   1.082       .  S
C794        H806   1.081       .  S
C795        C796   1.375       .  A
C795        H807   1.082       .  S
C796        H808   1.082       .  S
C797       C1141   1.391   1_455  A
C798        C834   1.525       .  S
C799       C1077   1.489       .  S
C799       C1148   1.412       .  A
C800        C832   1.499       .  S
N811        C816   1.352   1_455  A
N811        C815   1.349   1_455  A
N811        H843   1.045       .  S
N812        C819   1.346       .  A
N812        C820   1.351       .  A
N813        C818   1.353       .  A
N813        C817   1.361       .  A
N813        H844   1.043   1_455  S
N814        C821   1.358       .  A
N814        C822   1.354       .  A
C815        C823   1.384       .  A
C815        C831   1.397       .  A
C816        C832   1.398   1_655  A
C816        C824   1.384       .  A
C817        C825   1.390       .  A
C817        C834   1.430   1_455  A
C818        C833   1.416       .  A
C818        C826   1.383       .  A
C819        C831   1.403       .  A
C819        C827   1.377       .  A
C820        C834   1.429       .  A
C820        C828   1.397       .  A
C821        C829   1.382       .  A
C821        C832   1.412       .  A
C822        C830   1.390       .  A
C822        C833   1.420       .  A
C823        C824   1.374       .  A
C823        H835   1.083       .  S
C824        H836   1.082       .  S
C825        C826   1.378       .  A
C825        H837   1.082       .  S
C826        H838   1.082       .  S
C827        C828   1.375       .  A
C827        H839   1.081       .  S
C828        H840   1.075       .  S
C829        C830   1.374       .  A
C829        H841   1.082       .  S
C830        H842   1.080       .  S
C833       C1070   1.505       .  S
N845        C850   1.342       .  A
N845        C849   1.352       .  A
N845        H877   1.042       .  S
N846        C853   1.356       .  A
N846        C854   1.351       .  A
N847        C852   1.358       .  A
N847        C851   1.353       .  A
N847        H878   1.043       .  S
N848        C855   1.343       .  A
N848        C856   1.350       .  A
C849        C857   1.392       .  A
C849        C865   1.418       .  A
C850       C1226   1.393       .  A
C850        C858   1.377       .  A
C851        C859   1.388       .  A
C851        C868   1.419   1_554  A
C852        C867   1.421       .  A
C852        C860   1.386       .  A
C853        C865   1.428       .  A
C853        C861   1.387       .  A
C854       C1228   1.424       .  A
C854        C862   1.387       .  A
C855        C863   1.387       .  A
C855        C866   1.394       .  A
C856        C864   1.381       .  A
C856        C867   1.385       .  A
C857        C858   1.370       .  A
C857        H869   1.073       .  S
C858        H870   1.083       .  S
C859        C860   1.379       .  A
C859        H871   1.081       .  S
C860        H872   1.082       .  S
C861        C862   1.383       .  A
C861        H873   1.082       .  S
C862        H874   1.082       .  S
C863        C864   1.372       .  A
C863        H875   1.082       .  S
C864        H876   1.083       .  S
C865        C901   1.526       .  S
C866       C1001   1.516       .  S
C866       C1210   1.404   1_554  A
C867        C899   1.514       .  S
C868       C1061   1.513       .  S
C868       C1214   1.419       .  A
N879        C884   1.353       .  A
N879        C883   1.357       .  A
N879        H911   1.043       .  S
N880        C887   1.352       .  A
N880        C888   1.351       .  A
N881        C886   1.353       .  A
N881        C885   1.350       .  A
N881        H912   1.040       .  S
N882        C889   1.363       .  A
N882        C890   1.360       .  A
C883        C891   1.391       .  A
C883        C899   1.424       .  A
C884        C900   1.420       .  A
C884        C892   1.382       .  A
C885        C893   1.393       .  A
C885        C902   1.419       .  A
C886        C901   1.414       .  A
C886        C894   1.381       .  A
C887        C899   1.417       .  A
C887        C895   1.388       .  A
C888        C902   1.409       .  A
C888        C896   1.385       .  A
C889        C897   1.388       .  A
C889        C900   1.410       .  A
C890        C898   1.383       .  A
C890        C901   1.413       .  A
C891        C892   1.373       .  A
C891        H903   1.077       .  S
C892        H904   1.082       .  S
C893        C894   1.370       .  A
C893        H905   1.077       .  S
C894        H906   1.081       .  S
C895        C896   1.367       .  A
C895        H907   1.082       .  S
C896        H908   1.083       .  S
C897        C898   1.361       .  A
C897        H909   1.083       .  S
C898        H910   1.083       .  S
C900       C1036   1.519       .  S
C902       C1054   1.481       .  S
N913        C918   1.346       .  A
N913        C917   1.347       .  A
N913        H945   1.046       .  S
N914        C921   1.353       .  A
N914        C922   1.347       .  A
N915        C920   1.354       .  A
N915        C919   1.351       .  A
N915        H946   1.045       .  S
N916        C923   1.346       .  A
N916        C924   1.343       .  A
C917        C925   1.387       .  A
C917       C1293   1.407   1_554  A
C918        C934   1.409       .  A
C918        C926   1.386       .  A
C919        C927   1.388       .  A
C919        C936   1.418       .  A
C920        C935   1.417       .  A
C920        C928   1.387       .  A
C921        C933   1.423       .  A
C921        C929   1.388       .  A
C922        C936   1.411       .  A
C922        C930   1.382       .  A
C923        C931   1.386       .  A
C923        C934   1.412       .  A
C924        C932   1.387       .  A
C924       C1295   1.409       .  A
C925        C926   1.391       .  A
C925        H937   1.081       .  S
C926        H938   1.081       .  S
C927        C928   1.383       .  A
C927        H939   1.082       .  S
C928        H940   1.082       .  S
C929        C930   1.382       .  A
C929        H941   1.077       .  S
C930        H942   1.080       .  S
C931        C932   1.374       .  A
C931        H943   1.080       .  S
C932        H944   1.081       .  S
C933       C1277   1.421       .  A
C934        C970   1.496       .  S
C935       C1073   1.493       .  S
C935       C1284   1.408       .  A
C936        C968   1.506       .  S
N947        C952   1.353       .  A
N947        C951   1.349       .  A
N947        H979   1.045       .  S
N948        C955   1.355       .  A
N948        C956   1.350       .  A
N949        C954   1.353       .  A
N949        C953   1.352       .  A
N949        H980   1.042       .  S
N950        C957   1.347       .  A
N950        C958   1.348       .  A
C951        C959   1.387       .  A
C951        C967   1.414       .  A
C952        C968   1.417       .  A
C952        C960   1.388       .  A
C953        C961   1.388       .  A
C953        C970   1.414       .  A
C954        C969   1.417       .  A
C954        C962   1.387       .  A
C955        C967   1.421       .  A
C955        C963   1.389       .  A
C956        C970   1.415       .  A
C956        C964   1.385       .  A
C957        C965   1.383       .  A
C957        C968   1.408       .  A
C958        C966   1.386       .  A
C958        C969   1.414       .  A
C959        C960   1.383       .  A
C959        H971   1.082       .  S
C960        H972   1.082       .  S
C961        C962   1.381       .  A
C961        H973   1.083       .  S
C962        H974   1.082       .  S
C963        C964   1.374       .  A
C963        H975   1.077       .  S
C964        H976   1.081       .  S
C965        C966   1.377       .  A
C965        H977   1.082       .  S
C966        H978   1.079       .  S
C969       C1065   1.496       .  S
N981        C986   1.351       .  A
N981        C985   1.361       .  A
N981       H1013   1.044       .  S
N982        C989   1.345       .  A
N982        C990   1.356       .  A
N983        C988   1.353       .  A
N983        C987   1.362       .  A
N983       H1014   1.043       .  S
N984        C991   1.355       .  A
N984        C992   1.356       .  A
C985        C993   1.391       .  A
C985       C1001   1.430       .  A
C986       C1002   1.416       .  A
C986        C994   1.382       .  A
C987        C995   1.386       .  A
C987       C1004   1.427       .  A
C988       C1363   1.423       .  A
C988        C996   1.388       .  A
C989       C1361   1.405       .  A
C989        C997   1.381       .  A
C990       C1004   1.422       .  A
C990        C998   1.389       .  A
C991        C999   1.386       .  A
C991       C1002   1.425       .  A
C992       C1000   1.386       .  A
C992       C1003   1.428       .  A
C993        C994   1.380       .  A
C993       H1005   1.078       .  S
C994       H1006   1.082       .  S
C995        C996   1.380       .  A
C995       H1007   1.082       .  S
C996       H1008   1.083       .  S
C997        C998   1.369       .  A
C997       H1009   1.082       .  S
C998       H1010   1.074       .  S
C999       C1000   1.375       .  A
C999       H1011   1.082       .  S
C1000      H1012   1.082       .  S
C1001      C1349   1.407   1_554  A
C1002      C1035   1.540       .  S
C1003      C1057   1.502       .  S
C1003      C1348   1.424   1_554  A
C1004      C1037   1.533       .  S
N1015      C1020   1.351       .  A
N1015      C1019   1.355       .  A
N1015      H1047   1.044       .  S
N1016      C1023   1.356       .  A
N1016      C1024   1.351       .  A
N1017      C1022   1.358       .  A
N1017      C1021   1.352       .  A
N1017      H1048   1.039       .  S
N1018      C1025   1.363       .  A
N1018      C1026   1.361       .  A
C1019      C1027   1.387       .  A
C1019      C1035   1.419       .  A
C1020      C1036   1.419       .  A
C1020      C1028   1.387       .  A
C1021      C1029   1.390       .  A
C1021      C1038   1.425       .  A
C1022      C1037   1.423       .  A
C1022      C1030   1.385       .  A
C1023      C1035   1.420       .  A
C1023      C1031   1.384       .  A
C1024      C1038   1.417       .  A
C1024      C1032   1.388       .  A
C1025      C1033   1.385       .  A
C1025      C1036   1.411       .  A
C1026      C1034   1.383       .  A
C1026      C1037   1.413       .  A
C1027      C1028   1.378       .  A
C1027      H1039   1.082       .  S
C1028      H1040   1.082       .  S
C1029      C1030   1.379       .  A
C1029      H1041   1.082       .  S
C1030      H1042   1.081       .  S
C1031      C1032   1.370       .  A
C1031      H1043   1.082       .  S
C1032      H1044   1.081       .  S
C1033      C1034   1.365       .  A
C1033      H1045   1.081       .  S
C1034      H1046   1.083       .  S
C1038      C1050   1.490       .  S
C1049      C1050   1.342       .  D
C1049      H1051   1.087       .  S
C1050      H1052   1.086       .  S
C1053      C1054   1.329       .  D
C1053      H1055   1.086       .  S
C1054      H1056   1.087       .  S
C1057      C1058   1.345       .  D
C1057      H1419   1.085   1_554  S
C1058      H1060   1.086       .  S
H1059      C1417   1.084       .  S
C1061      C1062   1.355       .  D
C1061      H1423   1.085   1_556  S
C1062      H1064   1.085       .  S
H1063      C1421   1.084       .  S
C1065      C1066   1.348       .  D
C1066      H1068   1.085       .  S
C1069      C1070   1.352       .  D
C1069      H1071   1.086       .  S
C1073      C1074   1.346       .  D
C1073      H1075   1.087       .  S
C1077      C1078   1.345   1_556  D
C1077      H1079   1.086       .  S
O1081     Cu1089   2.002       .  S
O1082     Cu1089   2.002   1_565  S
O1083     Cu1089   1.999       .  S
O1083      C1093   1.278       .  A
O1084      C1094   1.274       .  A
O1085     Cu1090   2.004       .  S
O1087     Cu1090   2.003       .  S
O1088     Cu1090   2.005   1_545  S
C1091      C1434   1.466       .  S
C1092      C1438   1.460       .  S
C1093      C1119   1.456       .  S
C1094      C1120   1.455       .  S
O1095     Cu1103   2.032   1_545  S
O1095      C1105   1.281       .  A
O1096     Cu1103   2.025       .  S
O1096      C1106   1.279       .  A
O1097     Cu1103   1.983   1_545  S
O1097      C1107   1.274       .  A
O1098      C1108   1.276       .  A
O1099     Cu1104   2.005   1_655  S
O1099      C1108   1.277       .  A
O1100      C1107   1.277   1_565  A
O1101      C1106   1.282       .  A
O1102     Cu1104   2.039   1_545  S
C1105      C1426   1.485       .  S
C1107      C1133   1.452       .  S
C1108      C1134   1.460       .  S
O1109     Cu1117   1.984   1_565  S
O1110     Cu1117   1.996       .  S
O1111     Cu1117   2.037   1_565  S
O1112     Cu1117   2.030       .  S
O1113     Cu1118   2.035       .  S
O1113      C1122   1.280       .  A
O1114     Cu1118   2.036   1_565  S
O1114      C1121   1.282       .  A
O1115     Cu1118   1.966       .  S
O1115      C1120   1.273       .  A
O1116     Cu1118   1.974   1_565  S
O1116      C1119   1.272   1_565  A
C1121      C1422   1.483       .  S
C1122      C1418   1.481       .  S
O1123     Cu1131   1.998       .  S
O1123      C1133   1.277       .  A
O1124     Cu1131   1.992       .  S
O1124      C1134   1.275   1_545  A
O1125     Cu1131   2.010   1_565  S
O1125      C1135   1.276       .  A
O1126     Cu1131   2.021       .  S
O1126      C1136   1.281       .  A
O1127     Cu1132   2.008   1_545  S
O1127      C1136   1.275       .  A
O1128     Cu1132   2.012       .  S
O1128      C1135   1.279       .  A
O1129     Cu1132   2.008       .  S
O1129      C1134   1.278       .  A
O1130     Cu1132   1.981       .  S
O1130      C1133   1.274   1_565  A
Cu1131    Cu1132   2.379   1_545  S
C1135      C1413   1.472       .  S
C1136      C1409   1.474       .  S
N1137      C1142   1.345       .  A
N1137      C1141   1.350       .  A
N1137      H1169   1.045   1_655  S
N1138      C1145   1.353       .  A
N1138      C1146   1.346   1_655  A
N1139      C1144   1.357       .  A
N1139      C1143   1.363       .  A
N1139      H1170   1.040   1_655  S
N1140      C1147   1.350       .  A
N1140      C1148   1.340       .  A
C1141      C1149   1.384       .  A
C1142      C1158   1.403       .  A
C1142      C1150   1.389       .  A
C1143      C1151   1.385       .  A
C1143      C1160   1.428       .  A
C1144      C1159   1.425       .  A
C1144      C1152   1.389       .  A
C1145      C1157   1.414   1_655  A
C1145      C1153   1.372   1_655  A
C1146      C1160   1.425   1_455  A
C1146      C1154   1.392       .  A
C1147      C1155   1.384       .  A
C1147      C1158   1.411       .  A
C1148      C1156   1.392       .  A
C1149      C1150   1.373       .  A
C1149      H1161   1.082   1_556  S
C1150      H1162   1.083       .  S
C1151      C1152   1.372       .  A
C1151      H1163   1.082       .  S
C1152      H1164   1.081       .  S
C1153      C1154   1.362       .  A
C1153      H1165   1.074       .  S
C1154      H1166   1.073       .  S
C1155      C1156   1.380       .  A
C1155      H1167   1.082       .  S
C1156      H1168   1.081       .  S
C1158      C1194   1.514       .  S
C1159      C1437   1.486       .  S
C1160      C1192   1.515   1_655  S
N1171      C1176   1.350   1_455  A
N1171      C1175   1.345   1_455  A
N1171      H1203   1.045       .  S
N1172      C1179   1.351       .  A
N1172      C1180   1.348       .  A
N1173      C1178   1.363       .  A
N1173      C1177   1.360       .  A
N1173      H1204   1.040   1_455  S
N1174      C1181   1.351       .  A
N1174      C1182   1.343       .  A
C1175      C1183   1.384       .  A
C1175      C1191   1.391       .  A
C1176      C1192   1.398   1_655  A
C1176      C1184   1.380       .  A
C1177      C1185   1.387       .  A
C1177      C1194   1.431   1_455  A
C1178      C1193   1.431       .  A
C1178      C1186   1.385       .  A
C1179      C1191   1.401       .  A
C1179      C1187   1.376       .  A
C1180      C1194   1.426       .  A
C1180      C1188   1.396       .  A
C1181      C1189   1.382       .  A
C1181      C1192   1.410       .  A
C1182      C1190   1.392       .  A
C1182      C1193   1.418       .  A
C1183      C1184   1.377       .  A
C1183      H1195   1.080       .  S
C1184      H1196   1.080       .  S
C1185      C1186   1.377       .  A
C1185      H1197   1.082       .  S
C1186      H1198   1.081       .  S
C1187      C1188   1.377       .  A
C1187      H1199   1.082       .  S
C1188      H1200   1.078       .  S
C1189      C1190   1.378       .  A
C1189      H1201   1.082       .  S
C1190      H1202   1.080       .  S
C1193      C1430   1.504       .  S
N1205      C1210   1.347       .  A
N1205      C1209   1.352       .  A
N1205      H1237   1.041       .  S
N1206      C1213   1.355       .  A
N1206      C1214   1.354       .  A
N1207      C1212   1.356       .  A
N1207      C1211   1.352       .  A
N1207      H1238   1.040       .  S
N1208      C1215   1.345       .  A
N1208      C1216   1.347       .  A
C1209      C1217   1.400       .  A
C1209      C1225   1.432       .  A
C1210      C1218   1.376       .  A
C1211      C1219   1.392       .  A
C1211      C1228   1.422       .  A
C1212      C1227   1.419       .  A
C1212      C1220   1.384       .  A
C1213      C1225   1.436       .  A
C1213      C1221   1.391       .  A
C1214      C1222   1.383       .  A
C1215      C1223   1.384       .  A
C1215      C1226   1.397       .  A
C1216      C1224   1.389       .  A
C1216      C1227   1.411       .  A
C1217      C1218   1.384       .  A
C1217      H1229   1.077       .  S
C1218      H1230   1.082       .  S
C1219      C1220   1.379       .  A
C1219      H1231   1.080       .  S
C1220      H1232   1.082       .  S
C1221      C1222   1.381       .  A
C1221      H1233   1.082       .  S
C1222      H1234   1.082       .  S
C1223      C1224   1.372       .  A
C1223      H1235   1.082       .  S
C1224      H1236   1.082       .  S
C1225      C1261   1.522       .  S
C1226      C1361   1.500       .  S
C1227      C1259   1.512       .  S
C1228      C1421   1.500       .  S
N1239      C1244   1.364       .  A
N1239      C1243   1.353       .  A
N1239      H1271   1.037       .  S
N1240      C1247   1.349       .  A
N1240      C1248   1.350       .  A
N1241      C1246   1.348       .  A
N1241      C1245   1.348       .  A
N1241      H1272   1.032       .  S
N1242      C1249   1.359       .  A
N1242      C1250   1.354       .  A
C1243      C1251   1.382       .  A
C1243      C1259   1.426       .  A
C1244      C1260   1.441       .  A
C1244      C1252   1.393       .  A
C1245      C1253   1.390       .  A
C1245      C1262   1.418       .  A
C1246      C1261   1.417       .  A
C1246      C1254   1.384       .  A
C1247      C1259   1.417       .  A
C1247      C1255   1.389       .  A
C1248      C1262   1.413       .  A
C1248      C1256   1.382       .  A
C1249      C1257   1.383       .  A
C1249      C1260   1.402       .  A
C1250      C1258   1.388       .  A
C1250      C1261   1.413       .  A
C1251      C1252   1.374       .  A
C1251      H1263   1.082       .  S
C1252      H1264   1.073       .  S
C1253      C1254   1.381       .  A
C1253      H1265   1.080       .  S
C1254      H1266   1.082       .  S
C1255      C1256   1.377       .  A
C1255      H1267   1.082       .  S
C1256      H1268   1.082       .  S
C1257      C1258   1.371       .  A
C1257      H1269   1.083       .  S
C1258      H1270   1.083       .  S
C1260      C1396   1.529       .  S
C1262      C1414   1.491       .  S
N1273      C1278   1.350       .  A
N1273      C1277   1.349       .  A
N1273      H1305   1.045       .  S
N1274      C1281   1.355       .  A
N1274      C1282   1.342       .  A
N1275      C1280   1.353       .  A
N1275      C1279   1.349       .  A
N1275      H1306   1.039       .  S
N1276      C1283   1.347       .  A
N1276      C1284   1.344       .  A
C1277      C1285   1.391       .  A
C1278      C1294   1.417       .  A
C1278      C1286   1.386       .  A
C1279      C1287   1.387       .  A
C1279      C1296   1.412       .  A
C1280      C1295   1.418   1_556  A
C1280      C1288   1.388       .  A
C1281      C1293   1.426       .  A
C1281      C1289   1.395       .  A
C1282      C1296   1.401       .  A
C1282      C1290   1.378       .  A
C1283      C1291   1.386       .  A
C1283      C1294   1.410       .  A
C1284      C1292   1.388       .  A
C1285      C1286   1.391       .  A
C1285      H1297   1.082       .  S
C1286      H1298   1.082       .  S
C1287      C1288   1.377       .  A
C1287      H1299   1.082       .  S
C1288      H1300   1.082       .  S
C1289      C1290   1.375       .  A
C1289      H1301   1.074       .  S
C1290      H1302   1.082       .  S
C1291      C1292   1.380       .  A
C1291      H1303   1.082       .  S
C1292      H1304   1.082       .  S
C1294      C1330   1.510       .  S
C1295      C1433   1.485       .  S
C1296      C1328   1.518       .  S
N1307      C1312   1.347       .  A
N1307      C1311   1.353       .  A
N1307      H1339   1.045       .  S
N1308      C1315   1.361       .  A
N1308      C1316   1.352       .  A
N1309      C1314   1.359       .  A
N1309      C1313   1.355       .  A
N1309      H1340   1.041       .  S
N1310      C1317   1.352       .  A
N1310      C1318   1.352       .  A
C1311      C1319   1.387       .  A
C1311      C1327   1.411       .  A
C1312      C1328   1.408       .  A
C1312      C1320   1.387       .  A
C1313      C1321   1.389       .  A
C1313      C1330   1.423       .  A
C1314      C1329   1.421       .  A
C1314      C1322   1.385       .  A
C1315      C1327   1.424       .  A
C1315      C1323   1.384       .  A
C1316      C1330   1.417       .  A
C1316      C1324   1.378       .  A
C1317      C1325   1.385       .  A
C1317      C1328   1.415       .  A
C1318      C1326   1.388       .  A
C1318      C1329   1.415       .  A
C1319      C1320   1.375       .  A
C1319      H1331   1.082       .  S
C1320      H1332   1.083       .  S
C1321      C1322   1.379       .  A
C1321      H1333   1.082       .  S
C1322      H1334   1.082       .  S
C1323      C1324   1.373       .  A
C1323      H1335   1.072       .  S
C1324      H1336   1.081       .  S
C1325      C1326   1.367       .  A
C1325      H1337   1.081       .  S
C1326      H1338   1.081       .  S
C1329      C1425   1.500       .  S
N1341      C1346   1.355       .  A
N1341      C1345   1.345       .  A
N1341      H1373   1.043       .  S
N1342      C1349   1.345       .  A
N1342      C1350   1.348       .  A
N1343      C1348   1.352       .  A
N1343      C1347   1.353       .  A
N1343      H1374   1.038       .  S
N1344      C1351   1.357       .  A
N1344      C1352   1.352       .  A
C1345      C1353   1.381       .  A
C1345      C1361   1.399       .  A
C1346      C1362   1.420       .  A
C1346      C1354   1.393       .  A
C1347      C1355   1.382       .  A
C1347      C1364   1.414       .  A
C1348      C1356   1.394       .  A
C1349      C1357   1.386       .  A
C1350      C1364   1.413       .  A
C1350      C1358   1.388       .  A
C1351      C1359   1.387       .  A
C1351      C1362   1.429       .  A
C1352      C1360   1.389       .  A
C1352      C1363   1.423       .  A
C1353      C1354   1.373       .  A
C1353      H1365   1.083       .  S
C1354      H1366   1.080       .  S
C1355      C1356   1.375       .  A
C1355      H1367   1.082       .  S
C1356      H1368   1.080       .  S
C1357      C1358   1.378       .  A
C1357      H1369   1.082       .  S
C1358      H1370   1.082       .  S
C1359      C1360   1.380       .  A
C1359      H1371   1.082       .  S
C1360      H1372   1.081       .  S
C1362      C1395   1.521       .  S
C1363      C1417   1.508       .  S
C1364      C1397   1.503       .  S
N1375      C1380   1.357       .  A
N1375      C1379   1.351       .  A
N1375      H1407   1.045       .  S
N1376      C1383   1.347       .  A
N1376      C1384   1.338       .  A
N1377      C1382   1.355       .  A
N1377      C1381   1.360       .  A
N1377      H1408   1.042       .  S
N1378      C1385   1.359       .  A
N1378      C1386   1.347       .  A
C1379      C1387   1.391       .  A
C1379      C1395   1.418       .  A
C1380      C1396   1.399       .  A
C1380      C1388   1.384       .  A
C1381      C1389   1.384       .  A
C1381      C1398   1.422       .  A
C1382      C1397   1.425       .  A
C1382      C1390   1.391       .  A
C1383      C1395   1.409       .  A
C1383      C1391   1.383       .  A
C1384      C1398   1.409       .  A
C1384      C1392   1.392       .  A
C1385      C1393   1.391       .  A
C1385      C1396   1.430       .  A
C1386      C1394   1.386       .  A
C1386      C1397   1.417       .  A
C1387      C1388   1.371       .  A
C1387      H1399   1.083       .  S
C1388      H1400   1.083       .  S
C1389      C1390   1.378       .  A
C1389      H1401   1.082       .  S
C1390      H1402   1.082       .  S
C1391      C1392   1.379       .  A
C1391      H1403   1.082       .  S
C1392      H1404   1.081       .  S
C1393      C1394   1.378       .  A
C1393      H1405   1.077       .  S
C1394      H1406   1.083       .  S
C1398      C1410   1.489       .  S
C1409      C1410   1.343       .  D
C1409      H1411   1.086       .  S
C1410      H1412   1.086       .  S
C1413      C1414   1.349       .  D
C1413      H1415   1.086       .  S
C1414      H1416   1.085       .  S
C1417      C1418   1.353       .  D
C1418      H1420   1.086       .  S
C1421      C1422   1.348       .  D
C1422      H1424   1.086       .  S
C1425      C1426   1.346       .  D
C1426      H1428   1.086       .  S
C1429      C1430   1.347       .  D
C1429      H1431   1.086       .  S
C1433      C1434   1.344   1_554  D
C1433      H1435   1.086       .  S
C1437      C1438   1.342   1_655  D
C1437      H1439   1.086       .  S
