geometry optimzed in LAMMPS
_audit_creation_date              2020-11-30 
_audit_creation_method            'lammps2cif' 
_symmetry_space_group_name_H-M    'P1' 
_symmetry_Int_Tables_number       1 
_symmetry_cell_setting            triclinic 
loop_ 
_symmetry_equiv_pos_as_xyz 
  x,y,z 
_cell_length_a                    20.11910261 
_cell_length_b                    20.102491065138373 
_cell_length_c                    49.58667418419828 
_cell_angle_alpha                 89.84374509640566 
_cell_angle_beta                  90.66618159834023 
_cell_angle_gamma                 85.72454829076636 
loop_ 
_atom_site_label 
_atom_site_type_symbol 
_atom_site_fract_x 
_atom_site_fract_y 
_atom_site_fract_z 
_atom_site_charge 
N1          N  0.33858687  0.99626663  0.26492817    -0.02300
C2          C  0.31659169  0.02879287  0.24198261     0.00300
C3          C  0.28379215  0.08954404  0.24840355    -0.22600
C4          C  0.28064693  0.09248978  0.27581477    -0.22800
C5          C  0.31118334  0.03339993  0.28554169     0.00200
H6          H  0.25793358  0.12467504  0.23461005     0.13900
H7          H  0.25131040  0.12973176  0.28720782     0.14000
N8          N  0.39493987  0.94896147  0.26729188    -0.02300
C9          C  0.41576747  0.91549510  0.29017985     0.00300
C10         C  0.45404008  0.85796178  0.28377320    -0.22600
C11         C  0.46192494  0.85836422  0.25650855    -0.22800
C12         C  0.42803253  0.91602206  0.24683888     0.00200
H13         H  0.48072695  0.82383780  0.29773998     0.13900
H14         H  0.49484918  0.82383282  0.24529921     0.14000
N15         N  0.90302091  0.45791009  0.26613843    -0.02300
C16         C  0.93932008  0.43637964  0.24429849     0.00300
C17         C  0.00305646  0.41487537  0.25265736    -0.22600
C18         C  0.00395872  0.41708899  0.28031483    -0.22800
C19         C  0.94102078  0.44092084  0.28838067     0.00200
H20         H  0.04112344  0.38933062  0.24042526     0.13900
H21         H  0.04278347  0.39320584  0.29307898     0.14000
N22         N  0.83905374  0.49361317  0.26583904    -0.02300
C23         C  0.80044524  0.51051790  0.28766295     0.00300
C24         C  0.73591061  0.52758794  0.27881986    -0.22600
C25         C  0.73651739  0.52726839  0.25117506    -0.22800
C26         C  0.80129505  0.51005480  0.24359813     0.00200
H27         H  0.69561203  0.55050286  0.29059348     0.13900
H28         H  0.69656724  0.54828492  0.23823853     0.14000
O29         O  0.05259407  0.97203400  0.06035967    -0.74100
O30         O  0.97461800  0.96980386  0.09312227    -0.53100
C31         C  0.03540654  0.97030867  0.08527609     0.79600
O32         O  0.85552388  0.17017228  0.46986900    -0.58800
O33         O  0.85538175  0.08679145  0.43869073    -0.51800
C34         C  0.85548670  0.14869041  0.44541375     0.71600
O35         O  0.85914764  0.16620647  0.06091538    -0.73300
O36         O  0.86842658  0.08165354  0.09193991    -0.53900
C37         C  0.86416388  0.14407606  0.08527127     0.77600
O38         O  0.04765386  0.97301703  0.47033901    -0.58500
O39         O  0.96365980  0.97856494  0.43904251    -0.51600
C40         C  0.02615308  0.97603823  0.44588545     0.74200
Zr41       Zr  0.00293538  0.97190791  0.01538770     2.54700
O42         O  0.08085890  0.05861775  0.01284392    -0.79000
O43         O  0.09046800  0.88142694  0.01650460    -0.92400
Zr44       Zr  0.85767569  0.11750376  0.01597635     2.64700
O45         O  0.94058524  0.19984837  0.01701417    -0.97400
O46         O  0.76223859  0.19950624  0.01537567    -0.79500
O47         O  0.93315933  0.04496121  0.04188653    -0.82800
O48         O  0.92888244  0.04675727  0.48896538    -2.17500
O49         O  0.86670362  0.79236060  0.46877784    -0.66200
O50         O  0.86170488  0.87773905  0.43827420    -0.50800
C51         C  0.86541996  0.81517184  0.44443225     0.72600
O52         O  0.68576669  0.98028008  0.06410078    -0.59100
O53         O  0.76906362  0.97914463  0.09553682    -0.51100
C54         C  0.70713421  0.97997818  0.08872602     0.74400
O55         O  0.66796185  0.00055533  0.47228547    -0.70500
O56         O  0.74813340  0.98887050  0.44002644    -0.49200
C57         C  0.68667377  0.99608458  0.44768184     0.75800
O58         O  0.86610624  0.78502982  0.05960689    -0.65800
O59         O  0.86724162  0.86659284  0.09148296    -0.53000
C60         C  0.86517616  0.80491035  0.08421584     0.74100
Zr61       Zr  0.87021598  0.83628540  0.01521198     2.77500
O62         O  0.78664574  0.75490879  0.01216556    -0.96600
O63         O  0.96494286  0.75369543  0.01718944    -0.77400
Zr64       Zr  0.72527665  0.98202380  0.01778524     2.70100
O65         O  0.64358578  0.89866621  0.01858852    -0.78600
O66         O  0.64147534  0.07573353  0.01993498    -0.97700
Zr67       Zr  0.86887088  0.97484952  0.06841657     2.21500
Zr68       Zr  0.85733597  0.98190764  0.46307076     2.11100
O69         O  0.78849868  0.91528797  0.48912393    -2.46400
O70         O  0.79939704  0.90737568  0.04259757    -0.78400
O71         O  0.93019977  0.90535364  0.48804841    -0.70600
O72         O  0.79348062  0.04970498  0.04331109    -2.31600
O73         O  0.93978681  0.90173518  0.04170873    -2.27800
O74         O  0.78738657  0.05685170  0.48915642    -0.72400
H75         H  0.95602943  0.07305128  0.47725855     0.79600
H76         H  0.76565645  0.07800198  0.05535307     0.80700
H77         H  0.76039666  0.89027788  0.47747273     0.82900
H78         H  0.96917326  0.87270291  0.05305465     0.80500
H79         H  0.74434937  0.19898488  0.03388506     0.43600
H80         H  0.65260931  0.10560708  0.00500381     0.42500
H81         H  0.60111599  0.92405755  0.02307835     0.42200
H82         H  0.80755352  0.71424516  0.02100730     0.40100
H83         H  0.94744715  0.71244236  0.01001772     0.43300
H84         H  0.13154075  0.90283905  0.01179058     0.38100
H85         H  0.05877357  0.09677502  0.02268584     0.44200
H86         H  0.96896422  0.19200830  0.49822713     0.40600
H87         H  0.75122705  0.77158336  0.02467267     0.45500
H88         H  0.08111602  0.85342700  0.00070576     0.44200
H89         H  0.91420017  0.24339894  0.01603414     0.44400
H90         H  0.59944739  0.05723878  0.01405135     0.44700
C91         C  0.80640994  0.58783680  0.35766479    -0.13200
C92         C  0.85457726  0.63361307  0.35396132     0.17200
C93         C  0.89151525  0.63121460  0.32995586     0.03500
C94         C  0.87734613  0.58540153  0.30983810    -0.11700
C95         C  0.82517211  0.54328065  0.31246452    -0.02800
C96         C  0.79056557  0.54374242  0.33719477     0.02700
C97         C  0.86441187  0.68208427  0.37586261     0.09500
N98         N  0.94275567  0.67523805  0.32529950     0.65900
H99         H  0.90582233  0.58484694  0.29156160     0.18800
N100        N  0.73832869  0.50104151  0.34200724     0.76400
H101        H  0.77885123  0.58809425  0.37633220     0.10300
C102        C  0.83904205  0.74920313  0.37391394     0.04000
C103        C  0.84111799  0.79085801  0.39638744    -0.04700
C104        C  0.86652281  0.76721568  0.42145492    -0.23100
C105        C  0.89105317  0.69929620  0.42345358     0.13300
C106        C  0.89013105  0.65798949  0.40069548    -0.12200
N107        N  0.80635907  0.77507903  0.34998448     0.64900
H108        H  0.82018390  0.84189383  0.39428697     0.12800
N109        N  0.91725356  0.67079276  0.44813191     0.61600
H110        H  0.90800619  0.60593770  0.40261724     0.09000
O111        O  0.67885437  0.52561833  0.34032782    -0.39900
O112        O  0.75099741  0.45086165  0.35701843    -0.39100
O113        O  0.00265580  0.65366390  0.32904510    -0.39100
O114        O  0.93036148  0.72448582  0.30974544    -0.36800
O115        O  0.88027531  0.63692538  0.46226353    -0.37700
O116        O  0.97964321  0.66093647  0.45087714    -0.33800
O117        O  0.74359392  0.77671186  0.34863735    -0.35200
O118        O  0.83606159  0.81467074  0.33540271    -0.39500
C119        C  0.87547098  0.62278189  0.19243109    -0.13200
C120        C  0.83476926  0.61225928  0.17006381     0.17200
C121        C  0.79479839  0.55733099  0.17037551     0.03500
C122        C  0.79046014  0.51977864  0.19405820    -0.11700
C123        C  0.82553806  0.53529116  0.21753372    -0.02800
C124        C  0.87125806  0.58548043  0.21609034     0.01400
C125        C  0.83596995  0.66012847  0.14721325     0.09500
N126        N  0.75465347  0.54140380  0.14772634     0.65900
H127        H  0.75595854  0.48087437  0.19466147     0.18800
N128        N  0.90881081  0.60488612  0.23892829     0.76400
H129        H  0.90868365  0.66284051  0.19201102     0.10300
C130        C  0.81861595  0.72899772  0.15079979     0.04000
C131        C  0.82986196  0.77441696  0.13022983    -0.04700
C132        C  0.85807462  0.75357582  0.10568133    -0.23100
C133        C  0.87491087  0.68422367  0.10204831     0.13300
C134        C  0.86373597  0.63864752  0.12274665    -0.12200
N135        N  0.78865285  0.75402951  0.17508806     0.64900
H136        H  0.81538069  0.82659189  0.13341814     0.12800
N137        N  0.90577645  0.65875017  0.07805359     0.61600
H138        H  0.87907940  0.58627955  0.12000970     0.09000
O139        O  0.88910912  0.65792810  0.25090062    -0.39900
O140        O  0.96993498  0.58565179  0.24028950    -0.39100
O141        O  0.77253246  0.49053558  0.13400466    -0.39100
O142        O  0.69396946  0.56242103  0.14735704    -0.36800
O143        O  0.96828638  0.64712417  0.07803349    -0.37700
O144        O  0.87109644  0.62856135  0.06137126    -0.33800
O145        O  0.82398157  0.78318567  0.19187452    -0.35200
O146        O  0.72618158  0.76580766  0.17550432    -0.39500
C147        C  0.84058212  0.30798479  0.40275395    -0.13200
C148        C  0.87801486  0.28707358  0.38036232     0.17200
C149        C  0.90618807  0.22088527  0.37918549     0.03500
C150        C  0.89638111  0.17686538  0.40032789    -0.11700
C151        C  0.85986008  0.19757896  0.42316220    -0.02800
C152        C  0.83181140  0.26430516  0.42426896     0.02700
C153        C  0.88689123  0.33489723  0.35835416     0.09500
N154        N  0.94736368  0.19812558  0.35729513     0.65900
H155        H  0.91969089  0.12655711  0.39922257     0.18800
N156        N  0.79397926  0.28891572  0.44677905     0.76400
H157        H  0.81840201  0.35875975  0.40360370     0.10300
C158        C  0.84654254  0.33539617  0.33515704     0.04000
C159        C  0.86144334  0.37508415  0.31317738    -0.04700
C160        C  0.91474597  0.41670470  0.31431174    -0.23100
C161        C  0.94832661  0.42406453  0.33940121     0.13300
C162        C  0.93510686  0.38121513  0.36086243    -0.12200
N163        N  0.79054270  0.29557724  0.33383241     0.64900
H164        H  0.83230081  0.37182259  0.29493734     0.12800
N165        N  0.99243396  0.47630577  0.34422821     0.61600
H166        H  0.96308601  0.38342174  0.37960192     0.09000
O167        O  0.73120373  0.29133515  0.44518505    -0.39900
O168        O  0.82085196  0.32656617  0.46332479    -0.39100
O169        O  0.00961978  0.20088832  0.35960585    -0.39100
O170        O  0.92497099  0.15822612  0.34045714    -0.36800
O171        O  0.02129229  0.50375081  0.32519239    -0.37700
O172        O  0.99814205  0.49938067  0.36773940    -0.33800
O173        O  0.73785884  0.31454109  0.34607007    -0.35200
O174        O  0.79870192  0.23590632  0.32604271    -0.39500
C175        C  0.85510934  0.32025505  0.19669766    -0.13200
C176        C  0.88872432  0.33060406  0.17285540     0.17200
C177        C  0.93054797  0.38331979  0.17112926     0.03500
C178        C  0.94287003  0.42132119  0.19420056    -0.11700
C179        C  0.91239291  0.40816701  0.21894984    -0.02800
C180        C  0.86663933  0.35790272  0.21968157     0.02700
C181        C  0.88241096  0.28328682  0.15043467     0.09500
N182        N  0.96330129  0.39579368  0.14639484     0.65900
H183        H  0.97844966  0.45911930  0.19315513     0.18800
N184        N  0.83726965  0.33822931  0.24416092     0.76400
H185        H  0.82231240  0.27996062  0.19792312     0.10300
C186        C  0.91476777  0.21874160  0.15144913     0.04000
C187        C  0.90690185  0.17463108  0.13016325    -0.04700
C188        C  0.86806692  0.19348559  0.10736308    -0.23100
C189        C  0.83657312  0.25904162  0.10621789     0.13300
C190        C  0.84345054  0.30274822  0.12787137    -0.12200
N191        N  0.95776196  0.19779802  0.17347955     0.64900
H192        H  0.93302972  0.12568722  0.13116610     0.12800
N193        N  0.79674635  0.28238196  0.08362725     0.61600
H194        H  0.81832132  0.35232092  0.12703166     0.09000
O195        O  0.86420531  0.28811556  0.25654092    -0.39900
O196        O  0.77596851  0.35358833  0.24752889    -0.39100
O197        O  0.93257222  0.43162616  0.12865173    -0.39100
O198        O  0.01240625  0.35711122  0.13949045    -0.36800
O199        O  0.82136433  0.32105883  0.06700386    -0.37700
O200        O  0.73416505  0.28324233  0.08535600    -0.33800
O201        O  0.93638207  0.16030465  0.19134790    -0.35200
O202        O  0.01987159  0.19993863  0.17081612    -0.39500
C203        C  0.51857521  0.01665813  0.41080518    -0.13200
C204        C  0.52870154  0.96888013  0.39053785     0.17200
C205        C  0.59202342  0.93437792  0.38812532     0.03500
C206        C  0.64323572  0.94670974  0.40623690    -0.11700
C207        C  0.63309697  0.99303983  0.42706345    -0.02800
C208        C  0.56969951  0.02860570  0.42924402     0.02700
C209        C  0.47892428  0.96593240  0.36859580     0.09500
N210        N  0.60617319  0.88817276  0.36677311     0.65900
H211        H  0.69098995  0.91846535  0.40430391     0.18800
N212        N  0.55651469  0.07835992  0.44938964     0.76400
H213        H  0.47114334  0.04581904  0.41195996     0.10300
C214        C  0.44018758  0.91116642  0.36467930     0.04000
C215        C  0.41129430  0.90114037  0.33938116    -0.04700
C216        C  0.42255276  0.94341701  0.31761731    -0.23100
C217        C  0.45492905  0.00242834  0.32266923     0.13300
C218        C  0.48062728  0.01388071  0.34834118    -0.12200
N219        N  0.43314899  0.86289859  0.38538266     0.64900
H220        H  0.38559396  0.85631914  0.33600781     0.12800
N221        N  0.47406187  0.04484823  0.30156656     0.61600
H222        H  0.50991017  0.05648491  0.35138212     0.09000
O223        O  0.52108639  0.06471920  0.46919688    -0.39900
O224        O  0.56085657  0.13877353  0.44313793    -0.39100
O225        O  0.63749730  0.90697057  0.34656652    -0.39100
O226        O  0.60642852  0.82660097  0.37177836    -0.36800
O227        O  0.44011287  0.09948697  0.29775726    -0.37700
O228        O  0.53512007  0.04159277  0.29584190    -0.33800
O229        O  0.37828197  0.86332377  0.39747327    -0.35200
O230        O  0.47051243  0.80966327  0.38511744    -0.39500
C231        C  0.61890645  0.97379097  0.15665477    -0.13200
C232        C  0.55231707  0.97233174  0.14822373     0.17200
C233        C  0.53687466  0.97705836  0.12053772     0.03500
C234        C  0.58807976  0.98076237  0.10192549    -0.11700
C235        C  0.65549568  0.97998564  0.11010441    -0.02800
C236        C  0.67037074  0.97766445  0.13813518     0.02700
C237        C  0.50176924  0.96603057  0.16934105     0.09500
N238        N  0.46977161  0.98017357  0.11073795     0.65900
H239        H  0.57425697  0.98386779  0.08075412     0.18800
N240        N  0.73686059  0.97787139  0.14852910     0.76400
H241        H  0.63128466  0.97101352  0.17799584     0.10300
C242        C  0.47233824  0.90560051  0.17374755     0.04000
C243        C  0.44193504  0.89427845  0.19832855    -0.04700
C244        C  0.44240587  0.94073400  0.21938730    -0.23100
C245        C  0.46854219  0.00303046  0.21433032     0.13300
C246        C  0.49618036  0.01539485  0.18919998    -0.12200
N247        N  0.48035484  0.85157061  0.15519802     0.64900
H248        H  0.42305191  0.84593549  0.20181310     0.12800
N249        N  0.47685959  0.05071710  0.23507337     0.61600
H250        H  0.51997175  0.06148538  0.18623375     0.09000
O251        O  0.76354831  0.92471297  0.15871676    -0.39900
O252        O  0.75795984  0.03267159  0.15580642    -0.39100
O253        O  0.44306161  0.03613473  0.10336460    -0.39100
O254        O  0.44836965  0.92827064  0.10062843    -0.36800
O255        O  0.43768578  0.10272864  0.23525425    -0.37700
O256        O  0.53499086  0.05446189  0.24440260    -0.33800
O257        O  0.52800817  0.80795295  0.15897607    -0.35200
O258        O  0.43013451  0.83610915  0.14180116    -0.39500
C259        C  0.21693649  0.94545423  0.33893095    -0.13200
C260        C  0.21658030  0.99287556  0.35937468     0.17200
C261        C  0.26076819  0.04408098  0.35779761     0.03500
C262        C  0.29720355  0.05171871  0.33431555    -0.11700
C263        C  0.29096831  0.00903142  0.31227692    -0.02800
C264        C  0.25262907  0.95336748  0.31531755     0.02700
C265        C  0.16781095  0.98876488  0.38133114     0.09500
N266        N  0.26555324  0.09209260  0.37872239     0.65900
H267        H  0.32682311  0.09436814  0.33251617     0.18800
N268        N  0.23955899  0.91043646  0.29350773     0.76400
H269        H  0.18521868  0.90432413  0.34042867     0.10300
C270        C  0.09854406  0.98909039  0.37603598     0.04000
C271        C  0.05423257  0.98373083  0.39726666    -0.04700
C272        C  0.07676813  0.97802229  0.42411800    -0.23100
C273        C  0.14678846  0.97645072  0.42920742     0.13300
C274        C  0.19098816  0.98134005  0.40783748    -0.12200
N275        N  0.07159124  0.99710710  0.34933894     0.64900
H276        H  0.00143635  0.98530114  0.39251154     0.12800
N277        N  0.17484176  0.97173853  0.45578204     0.61600
H278        H  0.24410922  0.97930818  0.41204443     0.09000
O279        O  0.18136135  0.91569271  0.28360379    -0.39900
O280        O  0.27257817  0.85462917  0.29238032    -0.39100
O281        O  0.31779267  0.08965090  0.39314065    -0.39100
O282        O  0.23014192  0.14644978  0.37692025    -0.36800
O283        O  0.19917931  0.91563307  0.46410343    -0.37700
O284        O  0.19516054  0.02371979  0.46629778    -0.33800
O285        O  0.04849515  0.94755884  0.33794702    -0.35200
O286        O  0.05177556  0.05494657  0.34138356    -0.39500
C287        C  0.13438715  0.97295558  0.15166415    -0.13200
C288        C  0.19998936  0.97264821  0.14237459     0.17200
C289        C  0.21126371  0.96866584  0.11446763     0.03500
C290        C  0.15699870  0.96732944  0.09656956    -0.11700
C291        C  0.09068063  0.96913234  0.10573821    -0.02800
C292        C  0.08013103  0.97072680  0.13392873     0.02700
C293        C  0.25353253  0.97544910  0.16307779     0.09500
N294        N  0.27699116  0.96351778  0.10377306     0.65900
H295        H  0.16749197  0.96464011  0.07520607     0.18800
N296        N  0.01523355  0.97079606  0.14528856     0.76400
H297        H  0.12500297  0.97523483  0.17315099     0.10300
C298        C  0.28675054  0.03377642  0.16749754     0.04000
C299        C  0.31501273  0.04509554  0.19277429    -0.04700
C300        C  0.30860004  0.00092879  0.21440698    -0.23100
C301        C  0.28209728  0.93882369  0.20899432     0.13300
C302        C  0.25665532  0.92643570  0.18324617    -0.12200
N303        N  0.28565677  0.08594504  0.14793294     0.64900
H304        H  0.33635836  0.09232350  0.19623971     0.12800
N305        N  0.27174647  0.89101957  0.22953141     0.61600
H306        H  0.23154444  0.88116752  0.18001548     0.09000
O307        O  0.98984396  0.02422826  0.15535169    -0.39900
O308        O  0.99513698  0.91614967  0.15322096    -0.39100
O309        O  0.30182897  0.90671429  0.09685492    -0.39100
O310        O  0.29847122  0.01443742  0.09295423    -0.36800
O311        O  0.31420438  0.84195247  0.23216602    -0.37700
O312        O  0.21222131  0.88231869  0.23537457    -0.33800
O313        O  0.24173520  0.13385048  0.14975103    -0.35200
O314        O  0.33906225  0.09549483  0.13593840    -0.39500
N315        N  0.33421406  0.00323219  0.76375789    -0.02300
C316        C  0.31496191  0.04193950  0.74201696     0.00300
C317        C  0.28324155  0.10144462  0.75047976    -0.22600
C318        C  0.27701856  0.09693087  0.77779019    -0.22800
C319        C  0.30561754  0.03499543  0.78546633     0.00200
H320        H  0.25882730  0.14013873  0.73785207     0.13900
H321        H  0.24806776  0.13210380  0.79027498     0.14000
N322        N  0.38885014  0.95373720  0.76448994    -0.02300
C323        C  0.41190847  0.91911187  0.78673908     0.00300
C324        C  0.44192992  0.85791341  0.77915476    -0.22600
C325        C  0.44251737  0.85699758  0.75162031    -0.22800
C326        C  0.41309537  0.91764452  0.74299184     0.00200
H327        H  0.46822548  0.82121225  0.79216530     0.13900
H328        H  0.46957017  0.81982766  0.73939307     0.14000
N329        N  0.90618672  0.45473718  0.76508220    -0.02300
C330        C  0.94273280  0.43585774  0.74291533     0.00300
C331        C  0.00552545  0.41079786  0.75117818    -0.22600
C332        C  0.00544710  0.40829645  0.77883377    -0.22800
C333        C  0.94303527  0.43310874  0.78708427     0.00200
H334        H  0.04330491  0.38608690  0.73856287     0.13900
H335        H  0.04325360  0.38161937  0.79125688     0.14000
N336        N  0.84405069  0.49377797  0.76538976    -0.02300
C337        C  0.80634818  0.50998845  0.78754076     0.00300
C338        C  0.74229174  0.53062062  0.77906771    -0.22600
C339        C  0.74234618  0.53269385  0.75144214    -0.22800
C340        C  0.80631417  0.51339966  0.74346761     0.00200
H341        H  0.70311742  0.55414724  0.79125919     0.13900
H342        H  0.70295582  0.55631328  0.73888497     0.14000
O343        O  0.04687541  0.97333274  0.55995629    -0.74100
O344        O  0.96801593  0.97504748  0.59248493    -0.53100
C345        C  0.02893789  0.97480086  0.58479885     0.79600
O346        O  0.85282728  0.16730918  0.97047156    -0.58800
O347        O  0.85590969  0.08284888  0.93968052    -0.51800
C348        C  0.85399675  0.14508837  0.94606439     0.71600
O349        O  0.85939186  0.16926924  0.55970962    -0.73300
O350        O  0.86489139  0.08530787  0.59098835    -0.53900
C351        C  0.86293554  0.14749885  0.58408882     0.77600
O352        O  0.05000532  0.96589351  0.97064314    -0.58500
O353        O  0.96543110  0.97170177  0.93961710    -0.51600
C354        C  0.02805318  0.96727370  0.94624404     0.74200
Zr355      Zr  0.99919393  0.97015213  0.51476262     2.54700
O356        O  0.08882146  0.04500043  0.51429003    -0.79000
O357        O  0.07649012  0.87096567  0.51433085    -0.92400
Zr358      Zr  0.85892802  0.12046901  0.51505028     2.64700
O359        O  0.94851459  0.19560337  0.51627960    -0.97400
O360        O  0.76967687  0.20911940  0.51481920    -0.79500
O361        O  0.93132905  0.04563163  0.54102903    -0.82800
O362        O  0.92977564  0.04592522  0.98963314    -2.17500
O363        O  0.87499431  0.78908873  0.96955931    -0.66200
O364        O  0.86350479  0.87429899  0.93898695    -0.50800
C365        C  0.87040162  0.81176240  0.94519196     0.72600
O366        O  0.67914890  0.98925654  0.56195814    -0.59100
O367        O  0.76181559  0.98509869  0.59371406    -0.51100
C368        C  0.69989342  0.98779310  0.58664345     0.74400
O369        O  0.66985885  0.98613695  0.97391804    -0.70500
O370        O  0.75044733  0.98462260  0.94196702    -0.49200
C371        C  0.68876708  0.98653507  0.94926905     0.75800
O372        O  0.85948686  0.78942097  0.55889453    -0.65800
O373        O  0.86259771  0.87127170  0.59057732    -0.53000
C374        C  0.86023192  0.80959328  0.58347112     0.74100
Zr375      Zr  0.86181826  0.84011364  0.51431023     2.77500
O376        O  0.77593447  0.76089980  0.51311169    -0.96600
O377        O  0.95278731  0.75327071  0.51594796    -0.77400
Zr378      Zr  0.72152514  0.99065153  0.51619932     2.70100
O379        O  0.63559614  0.91150022  0.51567608    -0.78600
O380        O  0.64144245  0.08723656  0.51921771    -0.97700
Zr381      Zr  0.86329400  0.97885480  0.56734384     2.21500
Zr382      Zr  0.86004781  0.97803082  0.96422353     2.11100
O383        O  0.79407219  0.90914652  0.99043050    -2.46400
O384        O  0.79224770  0.91346018  0.54133154    -0.78400
O385        O  0.93579700  0.90427611  0.98904278    -0.70600
O386        O  0.79108386  0.05586271  0.54202717    -2.31600
O387        O  0.93298893  0.90316445  0.54110273    -2.27800
O388        O  0.78819864  0.05071141  0.99048834    -0.72400
H389        H  0.95605916  0.07264552  0.97766066     0.79600
H390        H  0.76371248  0.08507569  0.55389554     0.80700
H391        H  0.76653142  0.88308234  0.97891731     0.82900
H392        H  0.96136210  0.87363804  0.55258679     0.80500
H393        H  0.79288782  0.25083862  0.51501624     0.43600
H394        H  0.65254514  0.11657266  0.50410676     0.42500
H395        H  0.64541034  0.88323077  0.49967869     0.42200
H396        H  0.75084421  0.77076320  0.49609988     0.40100
H397        H  0.98337508  0.76553414  0.50156315     0.43300
H398        H  0.12115874  0.88845025  0.51541535     0.38100
H399        H  0.06754269  0.08780777  0.50740404     0.44200
H400        H  0.96315137  0.19557903  0.99939755     0.40600
H401        H  0.80061776  0.71717944  0.50996479     0.45500
H402        H  0.07345155  0.85340316  0.49575360     0.44200
H403        H  0.92547812  0.24086582  0.51659033     0.44400
H404        H  0.59824559  0.07029049  0.51392981     0.44700
C405        C  0.81329071  0.58051303  0.85861290    -0.13200
C406        C  0.86084602  0.62713440  0.85544765     0.17200
C407        C  0.89863801  0.62590350  0.83165787     0.03500
C408        C  0.88482126  0.58149994  0.81089990    -0.11700
C409        C  0.83248507  0.53931165  0.81287175    -0.02800
C410        C  0.79807523  0.53753044  0.83761001     0.02700
C411        C  0.86845676  0.67636837  0.87732183     0.09500
N412        N  0.94997817  0.67027317  0.82782380     0.65900
H413        H  0.91312159  0.58262066  0.79257670     0.18800
N414        N  0.74596438  0.49423365  0.84171068     0.76400
H415        H  0.78538230  0.57959778  0.87716606     0.10300
C416        C  0.83612663  0.74100878  0.87602260     0.04000
C417        C  0.83813573  0.78359044  0.89825466    -0.04700
C418        C  0.87108484  0.76330466  0.92238038    -0.23100
C419        C  0.90281471  0.69789970  0.92374636     0.13300
C420        C  0.90104236  0.65541739  0.90132569    -0.12200
N421        N  0.79818044  0.76350911  0.85280191     0.64900
H422        H  0.81207845  0.83265979  0.89672676     0.12800
N423        N  0.93905909  0.67405804  0.94719374     0.61600
H424        H  0.92478632  0.60529899  0.90276101     0.09000
O425        O  0.68638161  0.51831535  0.83971065    -0.39900
O426        O  0.75837339  0.44314512  0.85624095    -0.39100
O427        O  0.00998511  0.64774869  0.83024641    -0.39100
O428        O  0.93673156  0.72315280  0.81443812    -0.36800
O429        O  0.91233903  0.63478579  0.96295370    -0.37700
O430        O  0.00172368  0.67474530  0.94735345    -0.33800
O431        O  0.73557694  0.76243088  0.85334041    -0.35200
O432        O  0.82352868  0.80244751  0.83650885    -0.39500
C433        C  0.87818558  0.62970164  0.69329681    -0.13200
C434        C  0.83876862  0.61840407  0.67060324     0.17200
C435        C  0.80104074  0.56177055  0.67037025     0.03500
C436        C  0.79658578  0.52372744  0.69391210    -0.11700
C437        C  0.83070840  0.53940936  0.71759285    -0.02800
C438        C  0.87495359  0.59090082  0.71662796     0.01400
C439        C  0.83937176  0.66644166  0.64776699     0.09500
N440        N  0.76418158  0.54374373  0.64708292     0.65900
H441        H  0.76330624  0.48372471  0.69414717     0.18800
N442        N  0.91285625  0.60894110  0.73958335     0.76400
H443        H  0.91024707  0.67072004  0.69325436     0.10300
C444        C  0.82212528  0.73540307  0.65131210     0.04000
C445        C  0.83053739  0.78026315  0.63026222    -0.04700
C446        C  0.85553023  0.75875705  0.60524267    -0.23100
C447        C  0.87250380  0.68945869  0.60168772     0.13300
C448        C  0.86444420  0.64448275  0.62289716    -0.12200
N449        N  0.79450240  0.76115133  0.67592057     0.64900
H450        H  0.81617870  0.83253060  0.63350300     0.12800
N451        N  0.89983954  0.66337782  0.57712564     0.61600
H452        H  0.87965202  0.59211221  0.62011015     0.09000
O453        O  0.89308555  0.66072310  0.75238060    -0.39900
O454        O  0.97397751  0.58960024  0.74066826    -0.39100
O455        O  0.78646849  0.49427213  0.63342862    -0.39100
O456        O  0.70269819  0.56125346  0.64572655    -0.36800
O457        O  0.96203153  0.65012555  0.57588069    -0.37700
O458        O  0.86234357  0.63432335  0.56115090    -0.33800
O459        O  0.83116292  0.79181793  0.69169367    -0.35200
O460        O  0.73211728  0.77280803  0.67721852    -0.39500
C461        C  0.83485094  0.30017077  0.90051061    -0.13200
C462        C  0.87649231  0.27939299  0.87924202     0.17200
C463        C  0.90848579  0.21465017  0.87982009     0.03500
C464        C  0.89894327  0.17235091  0.90158915    -0.11700
C465        C  0.85838464  0.19299212  0.92333048    -0.02800
C466        C  0.82573935  0.25796645  0.92258217     0.02700
C467        C  0.88677035  0.32618848  0.85684149     0.09500
N468        N  0.95230994  0.19127540  0.85886755     0.65900
H469        H  0.92522768  0.12325117  0.90176191     0.18800
N470        N  0.78208735  0.28183456  0.94348610     0.76400
H471        H  0.80952259  0.34968769  0.90003607     0.10300
C472        C  0.84709386  0.32684409  0.83339672     0.04000
C473        C  0.86227841  0.36711623  0.81150398    -0.04700
C474        C  0.91587388  0.40841441  0.81284729    -0.23100
C475        C  0.94948419  0.41479452  0.83800487     0.13300
C476        C  0.93556467  0.37187420  0.85938311    -0.12200
N477        N  0.79159671  0.28646012  0.83171694     0.64900
H478        H  0.83328179  0.36456162  0.79315865     0.12800
N479        N  0.99456394  0.46616760  0.84297687     0.61600
H480        H  0.96331063  0.37370916  0.87819072     0.09000
O481        O  0.72006591  0.28009248  0.93980914    -0.39900
O482        O  0.80280523  0.32284140  0.96026155    -0.39100
O483        O  0.01407375  0.19620022  0.86200577    -0.39100
O484        O  0.93284120  0.14878498  0.84244608    -0.36800
O485        O  0.02131355  0.49574530  0.82394242    -0.37700
O486        O  0.00285206  0.48675677  0.86673314    -0.33800
O487        O  0.73781204  0.30588362  0.84307819    -0.35200
O488        O  0.80124510  0.22602818  0.82507424    -0.39500
C489        C  0.85800867  0.32698775  0.69280930    -0.13200
C490        C  0.89490826  0.33652586  0.66977413     0.17200
C491        C  0.93782996  0.38842648  0.66896528     0.03500
C492        C  0.94914234  0.42506451  0.69255580    -0.11700
C493        C  0.91599178  0.41169083  0.71674846    -0.02800
C494        C  0.86788052  0.36368390  0.71615856     0.02700
C495        C  0.88931401  0.28955093  0.64724757     0.09500
N496        N  0.97133533  0.40237179  0.64453897     0.65900
H497        H  0.98592384  0.46178104  0.69237957     0.18800
N498        N  0.83386187  0.34518266  0.73972670     0.76400
H499        H  0.82358397  0.28798347  0.69314046     0.10300
C500        C  0.92063281  0.22452324  0.64853064     0.04000
C501        C  0.90968681  0.17913895  0.62801923    -0.04700
C502        C  0.86877619  0.19731630  0.60575615    -0.23100
C503        C  0.83846220  0.26328249  0.60425892     0.13300
C504        C  0.84855845  0.30832784  0.62512851    -0.12200
N505        N  0.96518740  0.20409558  0.67012740     0.64900
H506        H  0.93502920  0.12976405  0.62917402     0.12800
N507        N  0.79602991  0.28540414  0.58223443     0.61600
H508        H  0.82388983  0.35808603  0.62418608     0.09000
O509        O  0.85574514  0.29289170  0.75202605    -0.39900
O510        O  0.77288072  0.36405932  0.74172405    -0.39100
O511        O  0.94156080  0.44044756  0.62728258    -0.39100
O512        O  0.01958138  0.36322691  0.63712142    -0.36800
O513        O  0.81984313  0.31971470  0.56385009    -0.37700
O514        O  0.73381747  0.29012822  0.58570039    -0.33800
O515        O  0.94435426  0.16892478  0.68889903    -0.35200
O516        O  0.02712152  0.20337348  0.66625001    -0.39500
C517        C  0.52162468  0.98262703  0.91114612    -0.13200
C518        C  0.54394943  0.97212963  0.88487383     0.17200
C519        C  0.61276184  0.97229599  0.87962809     0.03500
C520        C  0.65789733  0.97900680  0.90080420    -0.11700
C521        C  0.63659149  0.98660666  0.92755383    -0.02800
C522        C  0.56674479  0.99042276  0.93246200     0.02700
C523        C  0.49494924  0.96596043  0.86279430     0.09500
N524        N  0.63838873  0.96403186  0.85299352     0.65900
H525        H  0.71044568  0.97683795  0.89606248     0.18800
N526        N  0.53981290  0.00236968  0.95866322     0.76400
H527        H  0.46860762  0.98540504  0.91512092     0.10300
C528        C  0.45726106  0.91010168  0.85983700     0.04000
C529        C  0.42219234  0.90124000  0.83577173    -0.04700
C530        C  0.42569364  0.94592442  0.81408231    -0.23100
C531        C  0.45666397  0.00626405  0.81871648     0.13300
C532        C  0.48956195  0.01567969  0.84319073    -0.12200
N533        N  0.45866520  0.85885779  0.87983243     0.64900
H534        H  0.39730646  0.85565292  0.83308281     0.12800
N535        N  0.46397442  0.05531608  0.79841455     0.61600
H536        H  0.51604547  0.06026336  0.84599430     0.09000
O537        O  0.51814902  0.95406675  0.97130656    -0.39900
O538        O  0.51741610  0.06083705  0.96446830    -0.39100
O539        O  0.65635538  0.01460148  0.84068418    -0.39100
O540        O  0.66259442  0.90704579  0.84603010    -0.36800
O541        O  0.42200852  0.10514715  0.79773296    -0.37700
O542        O  0.52275192  0.06441504  0.79155640    -0.33800
O543        O  0.40850096  0.85530991  0.89465993    -0.35200
O544        O  0.49787445  0.80751408  0.87681601    -0.39500
C545        C  0.61030607  0.97620775  0.65396731    -0.13200
C546        C  0.54337823  0.97637678  0.64541197     0.17200
C547        C  0.52846201  0.98544629  0.61779184     0.03500
C548        C  0.58018667  0.98973284  0.59938864    -0.11700
C549        C  0.64753703  0.98769706  0.60776288    -0.02800
C550        C  0.66187672  0.98355103  0.63575392     0.02700
C551        C  0.49198703  0.97150570  0.66655921     0.09500
N552        N  0.46150704  0.99439367  0.60794538     0.65900
H553        H  0.56676382  0.99549539  0.57824593     0.18800
N554        N  0.72756739  0.98877986  0.64641737     0.76400
H555        H  0.62273335  0.97149183  0.67525914     0.10300
C556        C  0.45251326  0.91652443  0.66892736     0.04000
C557        C  0.42169654  0.90400533  0.69345008    -0.04700
C558        C  0.43077333  0.94392618  0.71613969    -0.23100
C559        C  0.46714041  0.00083857  0.71315552     0.13300
C560        C  0.49449860  0.01543002  0.68829134    -0.12200
N561        N  0.44774419  0.86913483  0.64780910     0.64900
H562        H  0.39444136  0.85973405  0.69534559     0.12800
N563        N  0.48870099  0.03696899  0.73577154     0.61600
H564        H  0.52541200  0.05727539  0.68702206     0.09000
O565        O  0.75867009  0.93744686  0.65630412    -0.39900
O566        O  0.74437782  0.04541219  0.65357924    -0.39100
O567        O  0.43689260  0.05318326  0.60388104    -0.39100
O568        O  0.43872912  0.94782542  0.59452046    -0.36800
O569        O  0.46145030  0.09463271  0.73975439    -0.37700
O570        O  0.54811873  0.02396929  0.74369035    -0.33800
O571        O  0.48529665  0.81603025  0.64887885    -0.35200
O572        O  0.39336975  0.86893090  0.63490462    -0.39500
C573        C  0.22113564  0.93536956  0.83871383    -0.13200
C574        C  0.21647514  0.98259713  0.85918669     0.17200
C575        C  0.25552556  0.03788299  0.85770889     0.03500
C576        C  0.29189812  0.04845879  0.83445441    -0.11700
C577        C  0.28874913  0.00619026  0.81204493    -0.02800
C578        C  0.25518925  0.94695010  0.81495003     0.02700
C579        C  0.16846490  0.97433017  0.88111441     0.09500
N580        N  0.25389613  0.08740792  0.87830271     0.65900
H581        H  0.31777165  0.09370735  0.83296590     0.18800
N582        N  0.24545333  0.90244269  0.79326319     0.76400
H583        H  0.19350814  0.89124039  0.84025733     0.10300
C584        C  0.09958505  0.97037804  0.87594007     0.04000
C585        C  0.05567198  0.96579612  0.89737962    -0.04700
C586        C  0.07837487  0.96508802  0.92426353    -0.23100
C587        C  0.14833120  0.96514831  0.92915747     0.13300
C588        C  0.19205613  0.96946858  0.90762182    -0.12200
N589        N  0.07241283  0.97429297  0.84918218     0.64900
H590        H  0.00298571  0.96476039  0.89276609     0.12800
N591        N  0.17667062  0.96360129  0.95569308     0.61600
H592        H  0.24505924  0.97012642  0.91172200     0.09000
O593        O  0.18606114  0.89762469  0.78553694    -0.39900
O594        O  0.28574383  0.85158995  0.79125536    -0.39100
O595        O  0.30372811  0.08957159  0.89387743    -0.39100
O596        O  0.21469084  0.13898532  0.87542727    -0.36800
O597        O  0.20484313  0.90941757  0.96437451    -0.37700
O598        O  0.19323858  0.01761307  0.96576002    -0.33800
O599        O  0.05313649  0.92203192  0.83850807    -0.35200
O600        O  0.04869147  0.03020792  0.84044208    -0.39500
C601        C  0.12486506  0.98884637  0.65129535    -0.13200
C602        C  0.19015956  0.99439642  0.64218685     0.17200
C603        C  0.20210117  0.99072670  0.61432582     0.03500
C604        C  0.14895857  0.98380151  0.59633710    -0.11700
C605        C  0.08328613  0.97853239  0.60535845    -0.02800
C606        C  0.07210553  0.97941595  0.63347600     0.02700
C607        C  0.24352001  0.99717629  0.66305630     0.09500
N608        N  0.26776702  0.99015016  0.60376385     0.65900
H609        H  0.15996479  0.98191584  0.57500737     0.18800
N610        N  0.00868791  0.96841213  0.64465806     0.76400
H611        H  0.11493355  0.98997895  0.67274748     0.10300
C612        C  0.27864136  0.05438175  0.66771000     0.04000
C613        C  0.30941959  0.06314867  0.69282153    -0.04700
C614        C  0.30203483  0.01840349  0.71415481    -0.23100
C615        C  0.27064423  0.95911344  0.70871095     0.13300
C616        C  0.24579373  0.94760085  0.68291334    -0.12200
N617        N  0.27767657  0.10765188  0.64865657     0.64900
H618        H  0.33340958  0.10884613  0.69651733     0.12800
N619        N  0.25058304  0.91664847  0.72959234     0.61600
H620        H  0.21858916  0.90361781  0.67970749     0.09000
O621        O  0.97395111  0.01740551  0.65422250    -0.39900
O622        O  0.99823472  0.91041869  0.65257248    -0.39100
O623        O  0.29634436  0.93476864  0.59707016    -0.39100
O624        O  0.28513845  0.04234686  0.59250470    -0.36800
O625        O  0.28231596  0.86056390  0.73270523    -0.37700
O626        O  0.18962965  0.92208312  0.73549097    -0.33800
O627        O  0.23512764  0.15644917  0.65141317    -0.35200
O628        O  0.33062136  0.11660174  0.63622212    -0.39500
loop_ 
_geom_bond_atom_site_label_1 
_geom_bond_atom_site_label_2 
_geom_bond_distance 
_geom_bond_site_symmetry_2 
_ccdc_geom_bond_type 
N1            C5   1.365   1_565  A
N1            C2   1.363   1_565  A
N1            N8   1.428       .  S
C2            C3   1.384       .  A
C2          C300   1.491       .  S
C3            C4   1.363       .  A
C3            H6   1.082       .  S
C4            C5   1.379       .  A
C4            H7   1.083       .  S
C5          C263   1.484       .  S
N8           C12   1.365       .  A
N8            C9   1.363       .  A
C9           C10   1.381       .  A
C9          C216   1.482       .  S
C10          C11   1.363       .  A
C10          H13   1.083       .  S
C11          C12   1.382       .  A
C11          H14   1.082       .  S
C12         C244   1.487       .  S
N15          C19   1.363       .  A
N15          C16   1.366       .  A
N15          N22   1.426       .  S
C16          C17   1.381   1_655  A
C16         C179   1.493       .  S
C17          C18   1.372       .  A
C17          H20   1.083       .  S
C18          C19   1.384   1_455  A
C18          H21   1.083       .  S
C19         C160   1.490       .  S
N22          C26   1.358       .  A
N22          C23   1.368       .  A
C23          C24   1.384       .  A
C23          C95   1.494       .  S
C24          C25   1.371       .  A
C24          H27   1.080       .  S
C25          C26   1.380       .  A
C25          H28   1.083       .  S
C26         C123   1.488       .  S
O29         Zr41   2.433       .  S
O29          C31   1.288       .  A
O30         Zr67   2.438       .  S
O30          C31   1.288   1_655  A
C31         C291   1.495       .  S
O32        Zr358   2.449       .  S
O32          C34   1.288       .  A
O33         Zr68   2.425   1_545  S
O33          C34   1.289       .  A
C34         C151   1.483       .  S
O35         Zr44   2.437       .  S
O35          C37   1.286       .  A
O36         Zr67   2.446   1_545  S
O36          C37   1.293       .  A
C37         C188   1.486       .  S
O38        Zr355   2.422   1_455  S
O38          C40   1.282       .  A
O39         Zr68   2.457       .  S
O39          C40   1.296   1_655  A
C40         C272   1.495       .  S
Zr41        O352   2.422   1_554  S
Zr41         O42   2.434   1_565  S
Zr41         O43   2.436       .  S
Zr41         O47   2.366   1_465  S
Zr41         O73   2.367   1_455  S
Zr41        O362   2.373   1_464  S
Zr41        O385   2.371   1_454  S
O42          H85   0.990       .  S
O43          H84   0.990       .  S
O43          H88   0.990       .  S
Zr44        O346   2.464   1_554  S
Zr44         O45   2.436       .  S
Zr44         O46   2.435       .  S
Zr44         O47   2.387       .  S
Zr44         O72   2.378       .  S
Zr44        O362   2.372   1_554  S
Zr44        O388   2.367   1_554  S
O45          H89   0.990       .  S
O45         H400   0.990   1_554  S
O46          H79   0.990       .  S
O47         Zr67   2.386   1_545  S
O48         Zr68   2.380   1_545  S
O48        Zr355   2.373   1_545  S
O48        Zr358   2.365       .  S
O48          H75   0.982       .  S
O49        Zr375   2.456       .  S
O49          C51   1.289       .  A
O50         Zr68   2.428       .  S
O50          C51   1.290       .  A
C51         C104   1.494       .  S
O52         Zr64   2.440       .  S
O52          C54   1.290       .  A
O53         Zr67   2.426       .  S
O53          C54   1.286       .  A
C54         C235   1.493       .  S
O55        Zr378   2.419   1_545  S
O55          C57   1.282   1_545  A
O56         Zr68   2.459       .  S
O56          C57   1.296       .  A
C57         C207   1.482       .  S
O58         Zr61   2.433       .  S
O58          C60   1.285       .  A
O59         Zr67   2.458       .  S
O59          C60   1.296       .  A
C60         C132   1.496       .  S
Zr61        O363   2.457   1_554  S
Zr61         O62   2.435       .  S
Zr61         O63   2.433       .  S
Zr61         O70   2.381       .  S
Zr61         O73   2.379       .  S
Zr61        O383   2.369   1_554  S
Zr61        O385   2.365   1_554  S
O62          H82   0.990       .  S
O62          H87   0.990       .  S
O63          H83   0.990       .  S
Zr64        O369   2.431   1_554  S
Zr64         O65   2.434       .  S
Zr64         O66   2.436   1_565  S
Zr64         O70   2.367       .  S
Zr64         O72   2.363   1_565  S
Zr64        O383   2.378   1_554  S
Zr64        O388   2.373   1_564  S
O65          H81   0.990       .  S
O66          H80   0.990       .  S
O66          H90   0.990       .  S
Zr67         O70   2.384       .  S
Zr67         O72   2.392   1_565  S
Zr67         O73   2.386       .  S
Zr68         O69   2.385       .  S
Zr68         O71   2.380       .  S
Zr68         O74   2.379   1_565  S
O69        Zr375   2.374       .  S
O69        Zr378   2.380       .  S
O69          H77   0.971       .  S
O71        Zr355   2.370       .  S
O71        Zr375   2.369       .  S
O72          H76   0.978       .  S
O73          H78   0.972       .  S
O74        Zr358   2.366       .  S
O74        Zr378   2.371   1_545  S
H86         O359   0.990       .  S
C91          C92   1.399       .  A
C91          C96   1.399       .  A
C91         H101   1.084       .  S
C92          C93   1.410       .  A
C92          C97   1.482       .  S
C93          C94   1.401       .  A
C93          N98   1.428       .  S
C94          C95   1.404       .  A
C94          H99   1.077       .  S
C95          C96   1.417       .  A
C96         N100   1.427       .  S
C97         C102   1.409       .  A
C97         C106   1.401       .  A
N98         O113   1.261   1_655  A
N98         O114   1.262       .  A
N100        O111   1.262       .  A
N100        O112   1.261       .  A
C102        C103   1.398       .  A
C102        N107   1.428       .  S
C103        C104   1.406       .  A
C103        H108   1.084       .  S
C104        C105   1.420       .  A
C105        C106   1.404       .  A
C105        N109   1.428       .  S
C106        H110   1.084       .  S
N107        O117   1.262       .  A
N107        O118   1.261       .  A
N109        O115   1.262       .  A
N109        O116   1.262       .  A
C119        C120   1.397       .  A
C119        C124   1.397       .  A
C119        H129   1.084       .  S
C120        C121   1.414       .  A
C120        C125   1.486       .  S
C121        C122   1.401       .  A
C121        N126   1.427       .  S
C122        C123   1.402       .  A
C122        H127   1.084       .  S
C123        C124   1.417       .  A
C124        N128   1.425       .  S
C125        C130   1.415       .  A
C125        C134   1.398       .  A
N126        O141   1.262       .  A
N126        O142   1.262       .  A
N128        O139   1.262       .  A
N128        O140   1.262       .  A
C130        C131   1.399       .  A
C130        N135   1.429       .  S
C131        C132   1.401       .  A
C131        H136   1.080       .  S
C132        C133   1.422       .  A
C133        C134   1.405       .  A
C133        N137   1.427       .  S
C134        H138   1.084       .  S
N135        O145   1.262       .  A
N135        O146   1.262       .  A
N137        O143   1.262       .  A
N137        O144   1.262       .  A
C147        C148   1.397       .  A
C147        C152   1.401       .  A
C147        H157   1.084       .  S
C148        C149   1.408       .  A
C148        C153   1.474       .  S
C149        C150   1.395       .  A
C149        N154   1.429       .  S
C150        C151   1.404       .  A
C150        H155   1.084       .  S
C151        C152   1.417       .  A
C152        N156   1.427       .  S
C153        C158   1.400       .  A
C153        C162   1.399       .  A
N154        O169   1.262   1_655  A
N154        O170   1.262       .  A
N156        O167   1.262       .  A
N156        O168   1.262       .  A
C158        C159   1.397       .  A
C158        N163   1.431       .  S
C159        C160   1.409       .  A
C159        H164   1.077       .  S
C160        C161   1.422       .  A
C161        C162   1.407       .  A
C161        N165   1.443       .  S
C162        H166   1.084       .  S
N163        O173   1.262       .  A
N163        O174   1.261       .  A
N165        O171   1.261   1_655  A
N165        O172   1.263       .  A
C175        C176   1.392       .  A
C175        C180   1.397       .  A
C175        H185   1.084       .  S
C176        C177   1.404       .  A
C176        C181   1.476       .  S
C177        C178   1.407       .  A
C177        N182   1.429       .  S
C178        C179   1.411       .  A
C178        H183   1.084       .  S
C179        C180   1.417       .  A
C180        N184   1.424       .  S
C181        C186   1.408       .  A
C181        C190   1.397       .  A
N182        O197   1.262       .  A
N182        O198   1.262   1_655  A
N184        O195   1.262       .  A
N184        O196   1.262       .  A
C186        C187   1.396       .  A
C186        N191   1.428       .  S
C187        C188   1.402       .  A
C187        H192   1.081       .  S
C188        C189   1.420       .  A
C189        C190   1.401       .  A
C189        N193   1.427       .  S
C190        H194   1.084       .  S
N191        O201   1.262       .  A
N191        O202   1.262   1_655  A
N193        O199   1.262       .  A
N193        O200   1.262       .  A
C203        C204   1.398   1_545  A
C203        C208   1.403       .  A
C203        H213   1.084       .  S
C204        C205   1.411       .  A
C204        C209   1.474       .  S
C205        C206   1.395       .  A
C205        N210   1.428       .  S
C206        C207   1.399       .  A
C206        H211   1.084       .  S
C207        C208   1.420   1_565  A
C208        N212   1.429       .  S
C209        C214   1.408       .  A
C209        C218   1.393   1_565  A
N210        O225   1.262       .  A
N210        O226   1.261       .  A
N212        O223   1.262       .  A
N212        O224   1.262       .  A
C214        C215   1.398       .  A
C214        N219   1.426       .  S
C215        C216   1.403       .  A
C215        H220   1.084       .  S
C216        C217   1.417   1_565  A
C217        C218   1.395       .  A
C217        N221   1.423       .  S
C218        H222   1.085       .  S
N219        O229   1.262       .  A
N219        O230   1.261       .  A
N221        O227   1.262       .  A
N221        O228   1.261       .  A
C231        C232   1.401       .  A
C231        C236   1.398       .  A
C231        H241   1.085       .  S
C232        C233   1.405       .  A
C232        C237   1.480       .  S
C233        C234   1.397       .  A
C233        N238   1.426       .  S
C234        C235   1.410       .  A
C234        H239   1.083       .  S
C235        C236   1.418       .  A
C236        N240   1.428       .  S
C237        C242   1.408       .  A
C237        C246   1.399   1_565  A
N238        O253   1.261   1_565  A
N238        O254   1.261       .  A
N240        O251   1.261       .  A
N240        O252   1.262   1_565  A
C242        C243   1.396       .  A
C242        N247   1.426       .  S
C243        C244   1.403       .  A
C243        H248   1.084       .  S
C244        C245   1.417   1_565  A
C245        C246   1.400       .  A
C245        N249   1.425       .  S
C246        H250   1.085       .  S
N247        O257   1.262       .  A
N247        O258   1.261       .  A
N249        O255   1.262       .  A
N249        O256   1.260       .  A
C259        C260   1.393       .  A
C259        C264   1.396       .  A
C259        H269   1.084       .  S
C260        C261   1.412   1_565  A
C260        C265   1.480       .  S
C261        C262   1.397       .  A
C261        N266   1.426       .  S
C262        C263   1.402       .  A
C262        H267   1.084       .  S
C263        C264   1.414   1_545  A
C264        N268   1.420       .  S
C265        C270   1.415       .  A
C265        C274   1.393       .  A
N266        O281   1.262       .  A
N266        O282   1.262       .  A
N268        O279   1.261       .  A
N268        O280   1.262       .  A
C270        C271   1.397       .  A
C270        N275   1.429       .  S
C271        C272   1.403       .  A
C271        H276   1.084       .  S
C272        C273   1.426       .  A
C273        C274   1.399       .  A
C273        N277   1.428       .  S
C274        H278   1.084       .  S
N275        O285   1.262       .  A
N275        O286   1.261   1_565  A
N277        O283   1.262       .  A
N277        O284   1.262   1_565  A
C287        C288   1.403       .  A
C287        C292   1.397       .  A
C287        H297   1.085       .  S
C288        C289   1.406       .  A
C288        C293   1.484       .  S
C289        C290   1.401       .  A
C289        N294   1.427       .  S
C290        C291   1.413       .  A
C290        H295   1.083       .  S
C291        C292   1.416       .  A
C292        N296   1.428       .  S
C293        C298   1.409   1_565  A
C293        C302   1.400       .  A
N294        O309   1.262       .  A
N294        O310   1.261   1_565  A
N296        O307   1.261   1_465  A
N296        O308   1.262   1_455  A
C298        C299   1.397       .  A
C298        N303   1.425       .  S
C299        C300   1.404       .  A
C299        H304   1.084       .  S
C300        C301   1.419   1_545  A
C301        C302   1.400       .  A
C301        N305   1.426       .  S
C302        H306   1.085       .  S
N303        O313   1.262       .  A
N303        O314   1.261       .  A
N305        O311   1.261       .  A
N305        O312   1.260       .  A
N315        C319   1.364       .  A
N315        C316   1.363       .  A
N315        N322   1.427   1_545  S
C316        C317   1.382       .  A
C316        C614   1.488       .  S
C317        C318   1.365       .  A
C317        H320   1.082       .  S
C318        C319   1.383       .  A
C318        H321   1.083       .  S
C319        C577   1.491       .  S
N322        C326   1.365       .  A
N322        C323   1.361       .  A
C323        C324   1.384       .  A
C323        C530   1.491       .  S
C324        C325   1.366       .  A
C324        H327   1.082       .  S
C325        C326   1.380       .  A
C325        H328   1.082       .  S
C326        C558   1.488       .  S
N329        C333   1.364       .  A
N329        C330   1.368       .  A
N329        N336   1.426       .  S
C330        C331   1.382   1_655  A
C330        C493   1.495       .  S
C331        C332   1.372       .  A
C331        H334   1.083       .  S
C332        C333   1.383   1_455  A
C332        H335   1.083       .  S
C333        C474   1.493       .  S
N336        C340   1.359       .  A
N336        C337   1.368       .  A
C337        C338   1.384       .  A
C337        C409   1.496       .  S
C338        C339   1.370       .  A
C338        H341   1.080       .  S
C339        C340   1.379       .  A
C339        H342   1.083       .  S
C340        C437   1.487       .  S
O343       Zr355   2.430   1_455  S
O343        C345   1.287       .  A
O344       Zr381   2.432       .  S
O344        C345   1.287   1_655  A
C345        C605   1.492       .  S
O346        C348   1.291       .  A
O347       Zr382   2.426   1_545  S
O347        C348   1.289       .  A
C348        C465   1.488       .  S
O349       Zr358   2.425       .  S
O349        C351   1.284       .  A
O350       Zr381   2.445   1_545  S
O350        C351   1.293       .  A
C351        C502   1.480       .  S
O352        C354   1.283       .  A
O353       Zr382   2.454       .  S
O353        C354   1.295   1_655  A
C354        C586   1.495       .  S
Zr355       O356   2.433   1_665  S
Zr355       O357   2.436   1_655  S
Zr355       O361   2.368   1_565  S
Zr355       O387   2.365       .  S
O356        H399   0.990       .  S
O357        H398   0.990       .  S
O357        H402   0.990       .  S
Zr358       O359   2.437       .  S
Zr358       O360   2.434       .  S
Zr358       O361   2.380       .  S
Zr358       O386   2.374       .  S
O359        H403   0.990       .  S
O360        H393   0.990       .  S
O361       Zr381   2.384   1_545  S
O362       Zr382   2.382   1_545  S
O362        H389   0.984       .  S
O363        C365   1.290       .  A
O364       Zr382   2.432       .  S
O364        C365   1.290       .  A
C365        C418   1.494       .  S
O366       Zr378   2.434       .  S
O366        C368   1.288       .  A
O367       Zr381   2.433       .  S
O367        C368   1.287       .  A
C368        C549   1.494       .  S
O369        C371   1.284       .  A
O370       Zr382   2.449       .  S
O370        C371   1.295       .  A
C371        C521   1.495       .  S
O372       Zr375   2.434       .  S
O372        C374   1.286       .  A
O373       Zr381   2.449       .  S
O373        C374   1.294       .  A
C374        C446   1.493       .  S
Zr375       O376   2.436       .  S
Zr375       O377   2.434       .  S
Zr375       O384   2.382       .  S
Zr375       O387   2.379       .  S
O376        H396   0.990       .  S
O376        H401   0.990       .  S
O377        H397   0.990       .  S
Zr378       O379   2.435       .  S
Zr378       O380   2.435   1_565  S
Zr378       O384   2.367       .  S
Zr378       O386   2.358   1_565  S
O379        H395   0.990       .  S
O380        H394   0.990       .  S
O380        H404   0.990       .  S
Zr381       O384   2.384       .  S
Zr381       O386   2.386   1_565  S
Zr381       O387   2.389       .  S
Zr382       O383   2.382       .  S
Zr382       O385   2.376       .  S
Zr382       O388   2.379   1_565  S
O383        H391   0.972       .  S
O386        H390   0.978       .  S
O387        H392   0.971       .  S
C405        C406   1.398       .  A
C405        C410   1.401       .  A
C405        H415   1.084       .  S
C406        C407   1.410       .  A
C406        C411   1.485       .  S
C407        C408   1.403       .  A
C407        N412   1.428       .  S
C408        C409   1.405       .  A
C408        H413   1.079       .  S
C409        C410   1.417       .  A
C410        N414   1.428       .  S
C411        C416   1.410       .  A
C411        C420   1.401       .  A
N412        O427   1.262   1_655  A
N412        O428   1.262       .  A
N414        O425   1.262       .  A
N414        O426   1.261       .  A
C416        C417   1.400       .  A
C416        N421   1.428       .  S
C417        C418   1.406       .  A
C417        H422   1.084       .  S
C418        C419   1.419       .  A
C419        C420   1.405       .  A
C419        N423   1.428       .  S
C420        H424   1.084       .  S
N421        O431   1.262       .  A
N421        O432   1.261       .  A
N423        O429   1.262       .  A
N423        O430   1.262   1_655  A
C433        C434   1.398       .  A
C433        C438   1.398       .  A
C433        H443   1.084       .  S
C434        C435   1.415       .  A
C434        C439   1.487       .  S
C435        C436   1.401       .  A
C435        N440   1.427       .  S
C436        C437   1.402       .  A
C436        H441   1.084       .  S
C437        C438   1.416       .  A
C438        N442   1.425       .  S
C439        C444   1.416       .  A
C439        C448   1.398       .  A
N440        O455   1.262       .  A
N440        O456   1.262       .  A
N442        O453   1.262       .  A
N442        O454   1.262       .  A
C444        C445   1.398       .  A
C444        N449   1.429       .  S
C445        C446   1.401       .  A
C445        H450   1.082       .  S
C446        C447   1.421       .  A
C447        C448   1.404       .  A
C447        N451   1.427       .  S
C448        H452   1.084       .  S
N449        O459   1.262       .  A
N449        O460   1.262       .  A
N451        O457   1.262       .  A
N451        O458   1.262       .  A
C461        C462   1.400       .  A
C461        C466   1.405       .  A
C461        H471   1.084       .  S
C462        C463   1.408       .  A
C462        C467   1.480       .  S
C463        C464   1.396       .  A
C463        N468   1.428       .  S
C464        C465   1.405       .  A
C464        H469   1.084       .  S
C465        C466   1.418       .  A
C466        N470   1.427       .  S
C467        C472   1.402       .  A
C467        C476   1.398       .  A
N468        O483   1.262   1_655  A
N468        O484   1.262       .  A
N470        O481   1.262       .  A
N470        O482   1.262       .  A
C472        C473   1.403       .  A
C472        N477   1.430       .  S
C473        C474   1.410       .  A
C473        H478   1.078       .  S
C474        C475   1.423       .  A
C475        C476   1.409       .  A
C475        N479   1.444       .  S
C476        H480   1.083       .  S
N477        O487   1.262       .  A
N477        O488   1.261       .  A
N479        O485   1.261   1_655  A
N479        O486   1.263   1_655  A
C489        C490   1.390       .  A
C489        C494   1.395       .  A
C489        H499   1.084       .  S
C490        C491   1.404       .  A
C490        C495   1.473       .  S
C491        C492   1.409       .  A
C491        N496   1.430       .  S
C492        C493   1.414       .  A
C492        H497   1.084       .  S
C493        C494   1.417       .  A
C494        N498   1.424       .  S
C495        C500   1.409       .  A
C495        C504   1.396       .  A
N496        O511   1.262       .  A
N496        O512   1.262   1_655  A
N498        O509   1.262       .  A
N498        O510   1.262       .  A
C500        C501   1.395       .  A
C500        N505   1.428       .  S
C501        C502   1.401       .  A
C501        H506   1.083       .  S
C502        C503   1.419       .  A
C503        C504   1.400       .  A
C503        N507   1.428       .  S
C504        H508   1.084       .  S
N505        O515   1.262       .  A
N505        O516   1.262   1_655  A
N507        O513   1.262       .  A
N507        O514   1.262       .  A
C517        C518   1.394       .  A
C517        C522   1.402       .  A
C517        H527   1.084       .  S
C518        C519   1.412       .  A
C518        C523   1.476       .  S
C519        C520   1.394       .  A
C519        N524   1.429       .  S
C520        C521   1.404       .  A
C520        H525   1.083       .  S
C521        C522   1.425       .  A
C522        N526   1.428   1_565  S
C523        C528   1.408       .  A
C523        C532   1.390   1_565  A
N524        O539   1.262   1_565  A
N524        O540   1.262       .  A
N526        O537   1.262   1_545  A
N526        O538   1.262       .  A
C528        C529   1.398       .  A
C528        N533   1.426       .  S
C529        C530   1.405       .  A
C529        H534   1.084       .  S
C530        C531   1.422   1_565  A
C531        C532   1.396       .  A
C531        N535   1.424       .  S
C532        H536   1.085       .  S
N533        O543   1.262       .  A
N533        O544   1.262       .  A
N535        O541   1.261       .  A
N535        O542   1.260       .  A
C545        C546   1.407       .  A
C545        C550   1.399       .  A
C545        H555   1.084       .  S
C546        C547   1.407       .  A
C546        C551   1.489       .  S
C547        C548   1.399       .  A
C547        N552   1.426       .  S
C548        C549   1.410       .  A
C548        H553   1.083       .  S
C549        C550   1.415       .  A
C550        N554   1.429       .  S
C551        C556   1.414       .  A
C551        C560   1.398   1_565  A
N552        O567   1.262   1_565  A
N552        O568   1.261       .  A
N554        O565   1.261       .  A
N554        O566   1.262   1_565  A
C556        C557   1.402       .  A
C556        N561   1.425       .  S
C557        C558   1.402       .  A
C557        H562   1.084       .  S
C558        C559   1.412   1_565  A
C559        C560   1.395       .  A
C559        N563   1.419       .  S
C560        H564   1.085       .  S
N561        O571   1.262       .  A
N561        O572   1.261       .  A
N563        O569   1.262       .  A
N563        O570   1.262       .  A
C573        C574   1.391       .  A
C573        C578   1.398       .  A
C573        H583   1.084       .  S
C574        C575   1.410   1_565  A
C574        C579   1.480       .  S
C575        C576   1.397       .  A
C575        N580   1.427       .  S
C576        C577   1.404       .  A
C576        H581   1.084       .  S
C577        C578   1.420   1_545  A
C578        N582   1.422       .  S
C579        C584   1.415       .  A
C579        C588   1.393       .  A
N580        O595   1.262       .  A
N580        O596   1.262       .  A
N582        O593   1.261       .  A
N582        O594   1.261       .  A
C584        C585   1.397       .  A
C584        N589   1.429       .  S
C585        C586   1.404       .  A
C585        H590   1.084       .  S
C586        C587   1.426       .  A
C587        C588   1.398       .  A
C587        N591   1.427       .  S
C588        H592   1.084       .  S
N589        O599   1.262       .  A
N589        O600   1.262   1_565  A
N591        O597   1.262       .  A
N591        O598   1.262   1_565  A
C601        C602   1.406       .  A
C601        C606   1.397       .  A
C601        H611   1.085       .  S
C602        C603   1.406       .  A
C602        C607   1.487       .  S
C603        C604   1.400       .  A
C603        N608   1.426       .  S
C604        C605   1.411       .  A
C604        H609   1.083       .  S
C605        C606   1.415       .  A
C606        N610   1.429       .  S
C607        C612   1.412   1_565  A
C607        C616   1.397       .  A
N608        O623   1.261       .  A
N608        O624   1.261   1_565  A
N610        O621   1.261   1_465  A
N610        O622   1.262   1_455  A
C612        C613   1.402       .  A
C612        N617   1.425       .  S
C613        C614   1.403       .  A
C613        H618   1.084       .  S
C614        C615   1.415   1_545  A
C615        C616   1.394       .  A
C615        N619   1.421       .  S
C616        H620   1.085       .  S
N617        O627   1.262       .  A
N617        O628   1.261       .  A
N619        O625   1.262       .  A
N619        O626   1.261       .  A
