geometry optimzed in LAMMPS
_audit_creation_date              2020-11-30 
_audit_creation_method            'lammps2cif' 
_symmetry_space_group_name_H-M    'P1' 
_symmetry_Int_Tables_number       1 
_symmetry_cell_setting            triclinic 
loop_ 
_symmetry_equiv_pos_as_xyz 
  x,y,z 
_cell_length_a                    38.80660885 
_cell_length_b                    38.76604844991924 
_cell_length_c                    27.374490490976477 
_cell_angle_alpha                 92.81368429138881 
_cell_angle_beta                  93.2413395189866 
_cell_angle_gamma                 88.80830601222115 
loop_ 
_atom_site_label 
_atom_site_type_symbol 
_atom_site_fract_x 
_atom_site_fract_y 
_atom_site_fract_z 
_atom_site_charge 
C1          C  0.86856115  0.37404230  0.27702403     0.31900
C2          C  0.87042032  0.37155536  0.04930334     0.31900
C3          C  0.90069447  0.38801632  0.30730478    -0.04300
C4          C  0.83896420  0.39578954  0.30174889    -0.05100
C5          C  0.86483209  0.33925531  0.30243089    -0.05000
C6          C  0.90247693  0.38520583  0.02524865    -0.04300
C7          C  0.84079109  0.39202462  0.02155359    -0.05100
C8          C  0.86717223  0.33571375  0.02112774    -0.05000
C9          C  0.93342726  0.39945835  0.04231293    -0.30400
N10         N  0.95153683  0.40800390  0.00353342     0.16100
C11         C  0.93178889  0.40123900  0.29594152    -0.30400
H12         H  0.93976853  0.40486660  0.25942251     0.18100
C13         C  0.80783947  0.40246587  0.03400604    -0.29300
N14         N  0.78486512  0.40871674  0.32455436     0.14900
C15         C  0.80507105  0.40347121  0.28572261    -0.29300
C16         C  0.86838126  0.30171190  0.03483080    -0.29600
N17         N  0.86965154  0.28025668  0.99419099     0.15400
H18         H  0.87064452  0.29318691  0.07191144     0.18000
C19         C  0.86645607  0.30478328  0.28762487    -0.29600
H20         H  0.86926348  0.29458602  0.25080373     0.18000
H21         H  0.79511954  0.40211383  0.24827495     0.18000
H22         H  0.94132309  0.40453510  0.08040532     0.18100
H23         H  0.79860175  0.40354181  0.07056295     0.18000
C24         C  0.87136147  0.37260534  0.11089003     0.31900
C25         C  0.87053490  0.37351777  0.21541327     0.31900
C26         C  0.86680716  0.40843147  0.13818490    -0.04300
C27         C  0.84385175  0.35118839  0.13349050    -0.05100
C28         C  0.90443806  0.35913653  0.13912906    -0.05000
C29         C  0.86663852  0.40898232  0.19080576    -0.04300
C30         C  0.84341985  0.35158467  0.18519437    -0.05100
C31         C  0.90402183  0.35944725  0.19174224    -0.05000
C32         C  0.88335493  0.43901968  0.20710971    -0.30400
N33         N  0.89449475  0.45580387  0.16879540     0.16100
C34         C  0.88318730  0.43818579  0.12721469    -0.30400
H35         H  0.89128128  0.44322012  0.09127509     0.18100
C36         C  0.81097873  0.34184618  0.19558147    -0.29300
N37         N  0.79128640  0.33779095  0.15331842     0.14900
C38         C  0.81163045  0.34150835  0.11551647    -0.29300
C39         C  0.92426819  0.33164858  0.20550097    -0.29600
N40         N  0.93581483  0.31421462  0.16538136     0.15400
H41         H  0.92443053  0.32074776  0.24110137     0.18000
C42         C  0.92503198  0.33141813  0.12546826    -0.29600
H43         H  0.92601365  0.32042398  0.08851150     0.18000
H44         H  0.80200577  0.34310450  0.07794704     0.18000
H45         H  0.89156733  0.44497636  0.24478881     0.18100
H46         H  0.80055108  0.34384586  0.23139081     0.18000
C47         C  0.52459511  0.87597170  0.05157517     0.31900
C48         C  0.52210243  0.87281803  0.27943683     0.31900
C49         C  0.51877464  0.91158224  0.02762662    -0.04300
C50         C  0.55752090  0.86313490  0.02718338    -0.05100
C51         C  0.49725766  0.85387726  0.02112622    -0.05000
C52         C  0.51336116  0.90780481  0.30683397    -0.04300
C53         C  0.55569685  0.86199962  0.30958636    -0.05100
C54         C  0.49573084  0.84974098  0.30197891    -0.05000
C55         C  0.48615651  0.92924920  0.29304716    -0.30400
N56         N  0.49204769  0.96021323  0.00319596     0.16100
C57         C  0.50281028  0.94220303  0.04290529    -0.30400
H58         H  0.49626860  0.94891746  0.08003608     0.18100
C59         C  0.58992449  0.85677508  0.29964146    -0.29300
N60         N  0.61173121  0.86011953  0.00600822     0.14900
C61         C  0.59137346  0.86105510  0.04450749    -0.29300
C62         C  0.48140476  0.81928541  0.28401853    -0.29600
N63         N  0.47286604  0.80078643  0.32193763     0.15400
H64         H  0.48125420  0.80925664  0.24644797     0.18000
C65         C  0.48484417  0.82198552  0.03054366    -0.29600
H66         H  0.48592106  0.81083680  0.06586249     0.18000
H67         H  0.60078896  0.86393423  0.08241612     0.18000
H68         H  0.48003307  0.93530345  0.25636507     0.18100
H69         H  0.60012357  0.85716591  0.26399752     0.18000
C70         C  0.52220641  0.87260946  0.21705466     0.31900
C71         C  0.52469301  0.87454901  0.11259156     0.31900
C72         C  0.48685258  0.87424508  0.18539014    -0.04300
C73         C  0.54146459  0.90309073  0.19600557    -0.05100
C74         C  0.54002042  0.84142778  0.18964401    -0.05000
C75         C  0.48882397  0.87551620  0.13330481    -0.04300
C76         C  0.54203877  0.90430122  0.14375701    -0.05100
C77         C  0.54152743  0.84279786  0.13786142    -0.05000
C78         C  0.46114696  0.89501580  0.11591875    -0.30400
N79         N  0.44328909  0.90711331  0.15372434     0.16100
C80         C  0.45651639  0.89221359  0.19474187    -0.30400
H81         H  0.44590412  0.89635876  0.23008625     0.18100
C82         C  0.57155667  0.92110995  0.13414899    -0.29300
N83         N  0.58964752  0.92895974  0.17655927     0.14900
C84         C  0.57170015  0.91842178  0.21403138    -0.29300
C85         C  0.54731233  0.80955901  0.12006111    -0.29600
N86         N  0.54795469  0.78761219  0.15712995     0.15400
H87         H  0.54630614  0.80146310  0.08187765     0.18000
C88         C  0.54357244  0.80668860  0.19945118    -0.29600
H89         H  0.53898134  0.79563719  0.23393762     0.18000
H90         H  0.58226864  0.91742900  0.25128130     0.18000
H91         H  0.45744893  0.90428542  0.07950232     0.18100
H92         H  0.58206443  0.92218689  0.09851065     0.18000
Zn93       Zn  0.90553698  0.95573509  0.31960369     1.49700
Zn94       Zn  0.99181424  0.96384694  0.01164535     1.49400
Zn95       Zn  0.94047370  0.89502110  0.05207417     1.49100
Zn96       Zn  0.97744937  0.90045046  0.28414692     1.49500
O97         O  0.95869562  0.92135927  0.00101059    -1.82300
O98         O  0.90682395  0.00941279  0.33163126    -0.72900
O99         O  0.00529433  0.95553395  0.07784398    -0.72700
O100        O  0.88732189  0.89534890  0.05282018    -0.72200
O101        O  0.96846893  0.01416987  0.00172033    -0.72900
O102        O  0.86510275  0.93747539  0.34997516    -0.72500
O103        O  0.97304782  0.91562609  0.10256547    -0.73100
O104        O  0.97690855  0.84943692  0.29760770    -0.72500
O105        O  0.04052238  0.95839512  0.98952255    -0.73200
O106        O  0.94921082  0.84548222  0.04423346    -0.72600
O107        O  0.03084964  0.91659336  0.27762736    -0.73100
O108        O  0.93609700  0.90690076  0.23661410    -0.73000
O109        O  0.89214961  0.94073514  0.25112943    -0.72800
C110        C  0.93719288  0.02302954  0.98873696     0.79000
C111        C  0.97625807  0.94580913  0.08821082     0.79500
C112        C  0.86447453  0.90830865  0.02346914     0.78500
C113        C  0.96850029  0.82605858  0.01904815     0.78800
C114        C  0.05792468  0.93054616  0.98174565     0.80000
C115        C  0.92362887  0.93688505  0.24412475     0.79000
Zn116      Zn  0.97260700  0.99836631  0.14684082     1.49700
Zn117      Zn  0.91086709  0.99332418  0.18959755     1.49400
Zn118      Zn  0.91412126  0.92617971  0.12784574     1.49100
Zn119      Zn  0.98432277  0.93275305  0.19617646     1.49500
O120        O  0.94478875  0.95877141  0.16499339    -1.82300
O121        O  0.96566313  0.04240206  0.18414451    -0.72900
O122        O  0.86131622  0.97920113  0.18817868    -0.72700
O123        O  0.91674383  0.95331124  0.06660177    -0.72200
O124        O  0.91076952  0.04048595  0.16288112    -0.72900
O125        O  0.94785366  0.99945759  0.08196944    -0.72500
O126        O  0.86400148  0.92934885  0.14590686    -0.73100
O127        O  0.97994223  0.87955743  0.18672351    -0.72500
O128        O  0.93530640  0.99624938  0.25248921    -0.73200
O129        O  0.93202067  0.87411155  0.13759658    -0.72600
O130        O  0.97867278  0.96002234  0.25759904    -0.73100
O131        O  0.03212705  0.94139813  0.17627202    -0.73000
O132        O  0.02489903  0.99338114  0.14835336    -0.72800
C133        C  0.93750338  0.05790458  0.17416123     0.79000
C134        C  0.84664238  0.95243294  0.16901247     0.79500
C135        C  0.94600264  0.96708635  0.07306193     0.78500
C136        C  0.95791543  0.86070636  0.16196562     0.78800
C137        C  0.94666379  0.96576955  0.25706664     0.80000
C138        C  0.04452211  0.96786481  0.15898394     0.79000
C139        C  0.00392075  0.51539371  0.29330671     0.31900
C140        C  0.00382701  0.51328053  0.06437699     0.31900
C141        C  0.00650225  0.48010408  0.31846605    -0.04300
C142        C  0.03176239  0.53634501  0.32353518    -0.05100
C143        C  0.97090100  0.53083010  0.31631274    -0.05000
C144        C  0.00810880  0.47752015  0.03676403    -0.04300
C145        C  0.03162251  0.53442540  0.04130381    -0.05100
C146        C  0.97063080  0.52686021  0.03641509    -0.05000
C147        C  0.99171614  0.44784089  0.04782774    -0.30400
N148        N  0.98020508  0.43034843  0.00628213     0.16100
C149        C  0.98982981  0.45005166  0.30247825    -0.30400
H150        H  0.98200363  0.44370991  0.26475890     0.18100
C151        C  0.06415604  0.54441970  0.05799158    -0.29300
N152        N  0.08398102  0.54988695  0.35494539     0.14900
C153        C  0.06429085  0.54563617  0.31281889    -0.29300
C154        C  0.95005587  0.55463002  0.04973316    -0.29600
N155        N  0.93922178  0.57171722  0.00954455     0.15400
H156        H  0.94987620  0.56615842  0.08649523     0.18000
C157        C  0.95238802  0.55924390  0.30088514    -0.29600
H158        H  0.95264243  0.56886650  0.26455419     0.18000
H159        H  0.07454458  0.54408133  0.27691429     0.18000
H160        H  0.98366955  0.44285765  0.08382202     0.18100
H161        H  0.07455951  0.54334173  0.09523992     0.18000
C162        C  0.00444860  0.51396355  0.12609619     0.31900
C163        C  0.00550251  0.51520637  0.23170041     0.31900
C164        C  0.97225194  0.50094112  0.15020926    -0.04300
C165        C  0.03351366  0.49280456  0.15324506    -0.05100
C166        C  0.00870746  0.54938165  0.15468654    -0.05000
C167        C  0.97272745  0.50149716  0.20200792    -0.04300
C168        C  0.03474939  0.49352218  0.20574867    -0.05100
C169        C  0.00914483  0.55036370  0.20676490    -0.05000
C170        C  0.94178835  0.48783081  0.21375528    -0.30400
N171        N  0.92315889  0.47819830  0.17179537     0.16100
C172        C  0.94123168  0.48689896  0.13308735    -0.30400
H173        H  0.93335620  0.48187675  0.09497611     0.18100
C174        C  0.06934653  0.48618679  0.21962579    -0.29300
N175        N  0.08811545  0.48095875  0.17917913     0.14900
C176        C  0.06632905  0.48439645  0.13934731    -0.29300
C177        C  0.00955002  0.58513530  0.22182763    -0.29600
N178        N  0.00894180  0.60455821  0.18165444     0.15400
H179        H  0.00809336  0.59561418  0.25899000     0.18000
C180        C  0.00881084  0.58303434  0.14121145    -0.29600
H181        H  0.00670753  0.59150672  0.10449982     0.18000
H182        H  0.07439301  0.48379172  0.10252003     0.18000
H183        H  0.93423866  0.48375500  0.25036755     0.18100
H184        H  0.08063887  0.48716765  0.25664326     0.18000
C185        C  0.38102286  0.01676796  0.04877712     0.31900
C186        C  0.38083286  0.01838058  0.27952848     0.31900
C187        C  0.41732155  0.01379370  0.02663067    -0.04300
C188        C  0.36189807  0.98695057  0.01798352    -0.05100
C189        C  0.36544724  0.04888737  0.02288482    -0.05000
C190        C  0.38710931  0.98244993  0.30289838    -0.04300
C191        C  0.34633676  0.03020193  0.30484685    -0.05100
C192        C  0.40774199  0.04048805  0.31340365    -0.05000
C193        C  0.41403298  0.96031171  0.29134357    -0.30400
N194        N  0.46596451  0.98654710  0.00304892     0.16100
C195        C  0.44764059  0.99704349  0.04226448    -0.30400
H196        H  0.45408480  0.99000746  0.07930880     0.18100
C197        C  0.31191087  0.03547795  0.28937261    -0.29300
N198        N  0.31561790  0.95903465  0.98371144     0.14900
C199        C  0.33345949  0.96755743  0.02654828    -0.29300
C200        C  0.42612857  0.07033181  0.30763701    -0.29600
N201        N  0.43084975  0.08886684  0.35072926     0.15400
H202        H  0.43539173  0.07919227  0.27455425     0.18000
C203        C  0.35916747  0.08282664  0.03801614    -0.29600
H204        H  0.35777463  0.09270928  0.07530069     0.18000
H205        H  0.32428876  0.96259878  0.06184377     0.18000
H206        H  0.40794368  0.93926823  0.26536582     0.18100
H207        H  0.30193100  0.04117698  0.25336729     0.18000
C208        C  0.38156727  0.01737197  0.21549710     0.31900
C209        C  0.38057070  0.01769200  0.10957178     0.31900
C210        C  0.39796287  0.98595704  0.18521225    -0.04300
C211        C  0.34614120  0.01805954  0.18597355    -0.05100
C212        C  0.39881390  0.04759499  0.19189676    -0.05000
C213        C  0.39378911  0.98455427  0.13333801    -0.04300
C214        C  0.34571044  0.02254002  0.13412875    -0.05100
C215        C  0.40220782  0.04566171  0.13997778    -0.05000
C216        C  0.40727340  0.95332421  0.11564609    -0.30400
N217        N  0.42425513  0.93859861  0.15383618     0.16100
C218        C  0.42360053  0.96174611  0.19206378    -0.30400
H219        H  0.44428994  0.96457513  0.21898752     0.18100
C220        C  0.31327597  0.01506640  0.11545897    -0.29300
N221        N  0.29623899  0.00031121  0.15004576     0.14900
C222        C  0.31689667  0.99923697  0.19110385    -0.29300
C223        C  0.41155367  0.07800673  0.12772834    -0.29600
N224        N  0.40842152  0.10026935  0.16677362     0.15400
H225        H  0.41827969  0.08475357  0.09210047     0.18000
C226        C  0.39740063  0.08254217  0.20371382    -0.29600
H227        H  0.38695588  0.09469905  0.23612638     0.18000
H228        H  0.31114480  0.98518098  0.22254844     0.18000
H229        H  0.40701680  0.94347077  0.07797931     0.18100
H230        H  0.30346687  0.01849141  0.07858614     0.18000
Zn231      Zn  0.39247977  0.48477651  0.30973255     1.49700
Zn232      Zn  0.46261442  0.48136097  0.03274862     1.49400
Zn233      Zn  0.38454368  0.42970951  0.01248794     1.49100
Zn234      Zn  0.45066260  0.41136313  0.29526827     1.49500
O235        O  0.42595281  0.44783099  0.32898591    -1.82300
O236        O  0.40721702  0.53415709  0.31361503    -0.72900
O237        O  0.43208001  0.48137411  0.08832426    -0.72700
O238        O  0.33851250  0.44479531  0.98184589    -0.72200
O239        O  0.46475496  0.53063567  0.01346467    -0.72900
O240        O  0.34969242  0.48681988  0.34404392    -0.72500
O241        O  0.38552001  0.45097081  0.07784164    -0.73100
O242        O  0.44148055  0.36340040  0.31650495    -0.72500
O243        O  0.51286914  0.46095703  0.02706330    -0.73200
O244        O  0.38508766  0.37776160  0.00990110    -0.72600
O245        O  0.50444446  0.41689806  0.30534763    -0.73100
O246        O  0.42023772  0.42182312  0.23657386    -0.73000
O247        O  0.38381500  0.46503801  0.24414819    -0.72800
C248        C  0.43598759  0.54699155  0.32812282     0.79000
C249        C  0.41773428  0.45240925  0.08595113     0.79500
C250        C  0.32685275  0.46451427  0.33410755     0.78500
C251        C  0.41633699  0.34883121  0.33431466     0.78800
C252        C  0.52367386  0.43604452  0.33464478     0.80000
C253        C  0.41429803  0.45397536  0.23838332     0.79000
Zn254      Zn  0.48766510  0.45912751  0.11688094     1.49700
Zn255      Zn  0.48142803  0.42520013  0.21773926     1.49400
Zn256      Zn  0.42446250  0.49338440  0.17313116     1.49100
Zn257      Zn  0.41360108  0.41181580  0.14981884     1.49500
O258        O  0.45396568  0.44712703  0.16527971    -1.82300
O259        O  0.53560936  0.44312127  0.13347084    -0.72900
O260        O  0.47258361  0.46576534  0.26493697    -0.72700
O261        O  0.44346890  0.53445827  0.14243491    -0.72200
O262        O  0.53203496  0.42145760  0.20618471    -0.72900
O263        O  0.49106924  0.51359564  0.10969660    -0.72500
O264        O  0.43924650  0.50830442  0.24068660    -0.73100
O265        O  0.36259233  0.43159817  0.15427050    -0.72500
O266        O  0.46761419  0.37287740  0.22365642    -0.73200
O267        O  0.36925302  0.48873264  0.16160570    -0.72600
O268        O  0.41685600  0.36788975  0.18241120    -0.73100
O269        O  0.42647856  0.39267052  0.08526401    -0.73000
O270        O  0.46984010  0.42341052  0.06616261    -0.72800
C271        C  0.54945693  0.42835979  0.17011918     0.79000
C272        C  0.44288077  0.47745841  0.25205671     0.79500
C273        C  0.47178420  0.53940637  0.12282028     0.78500
C274        C  0.34942504  0.46227798  0.15725490     0.78800
C275        C  0.44170963  0.35479505  0.20741286     0.80000
C276        C  0.43843823  0.42115622  0.07546443     0.79000
C277        C  0.40446675  0.26655495  0.21517116     0.14500
C278        C  0.43133714  0.24543459  0.19747315     0.01500
C279        C  0.46314615  0.26043929  0.18944108     0.16500
C280        C  0.46779810  0.29597264  0.19816965     0.25900
C281        C  0.44034198  0.31728975  0.21323703    -0.40400
C282        C  0.40865093  0.30221977  0.22186365     0.32900
C283        C  0.42611840  0.20788786  0.18714120     0.01600
F284        F  0.48903565  0.24102904  0.17019903    -0.12800
F285        F  0.38135597  0.32225347  0.23545128    -0.13300
C286        C  0.39802315  0.19590210  0.15646100     0.16500
C287        C  0.39250949  0.16040389  0.14873382     0.25900
C288        C  0.41545356  0.13646170  0.17034554    -0.40400
C289        C  0.44361100  0.14834993  0.20043196     0.32900
C290        C  0.44889163  0.18370538  0.20888345     0.14600
F291        F  0.37597162  0.21853216  0.13392606    -0.12700
F292        F  0.46558682  0.12549838  0.22251948    -0.13300
F293        F  0.36404775  0.14943404  0.12192451    -0.15500
F294        F  0.47566451  0.19431296  0.23960435    -0.14100
F295        F  0.37390257  0.25273224  0.22508677    -0.14100
F296        F  0.49809598  0.30998675  0.18753511    -0.15500
C297        C  0.42240855  0.25866602  0.99767434     0.14500
C298        C  0.42550028  0.23852286  0.35791583     0.01500
C299        C  0.39642170  0.25786109  0.37298879     0.16500
C300        C  0.39333529  0.29351041  0.36570771     0.25900
C301        C  0.41960778  0.31102215  0.34403935    -0.40400
C302        C  0.42949423  0.29386908  0.99865539     0.32900
C303        C  0.38123639  0.21010536  0.00429869     0.01600
F304        F  0.37083747  0.24218637  0.39489821    -0.12800
F305        F  0.46192559  0.30346961  0.98982963    -0.13300
C306        C  0.40359201  0.18655495  0.02797833     0.16500
C307        C  0.39662967  0.15146400  0.02466823     0.25900
C308        C  0.42995959  0.12626225  0.35403733    -0.40400
C309        C  0.40057272  0.14425024  0.33543240     0.32900
C310        C  0.39917364  0.18042347  0.33716674     0.14600
F311        F  0.43214051  0.19744375  0.05488828    -0.12700
F312        F  0.37284510  0.12658101  0.31597897    -0.13300
F313        F  0.42093239  0.12930493  0.04250231    -0.15500
F314        F  0.37111596  0.19651703  0.31608669    -0.14100
F315        F  0.44757601  0.23568161  0.98482196    -0.14100
F316        F  0.36452391  0.31076107  0.37995354    -0.15500
C317        C  0.25261107  0.44529574  0.13395224     0.14500
C318        C  0.23720228  0.47179872  0.16292789     0.01500
C319        C  0.25916844  0.49597266  0.18843606     0.16500
C320        C  0.29531728  0.49365007  0.18526413     0.25900
C321        C  0.31075912  0.46668541  0.15720259    -0.40400
C322        C  0.28878389  0.44259722  0.13147259     0.32900
C323        C  0.19850370  0.47409967  0.16706664     0.01600
F324        F  0.24570156  0.52121327  0.21818680    -0.12800
F325        F  0.30230668  0.41644583  0.10332020    -0.13300
C326        C  0.17982628  0.44582672  0.18182783     0.16500
C327        C  0.14388827  0.44850132  0.18731711     0.25900
C328        C  0.12550227  0.47919361  0.17749565    -0.40400
C329        C  0.14393545  0.50727262  0.16192159     0.32900
C330        C  0.17989181  0.50482827  0.15699256     0.14600
F331        F  0.19651949  0.41572603  0.19215438    -0.12700
F332        F  0.12708706  0.53724915  0.15156062    -0.13300
F333        F  0.12677209  0.42081232  0.20132603    -0.15500
F334        F  0.19642529  0.53233997  0.14111631    -0.14100
F335        F  0.23258093  0.42205149  0.10747453    -0.14100
F336        F  0.31531164  0.51698762  0.21160619    -0.15500
C337        C  0.23000442  0.47305872  0.31631582     0.14500
C338        C  0.22307484  0.50041379  0.35028334     0.01500
C339        C  0.25112352  0.52638570  0.03407342     0.16500
C340        C  0.28523805  0.51509462  0.03152368     0.25900
C341        C  0.29077706  0.47469605  0.34163105    -0.40400
C342        C  0.26358624  0.46002987  0.31231603     0.32900
C343        C  0.18856357  0.51983709  0.01161350     0.01600
F344        F  0.24380715  0.55449655  0.06350100    -0.12800
F345        F  0.26968732  0.43438750  0.27815213    -0.13300
C346        C  0.16431410  0.49622904  0.02487703     0.16500
C347        C  0.12992245  0.50617567  0.02717270     0.25900
C348        C  0.11928666  0.53873894  0.35700343    -0.40400
C349        C  0.14569024  0.56168225  0.35001409     0.32900
C350        C  0.17981024  0.54942161  0.34837820     0.14600
F351        F  0.17386956  0.46336571  0.03526266    -0.12700
F352        F  0.13815725  0.59548288  0.34307336    -0.13300
F353        F  0.10638794  0.48172254  0.03346831    -0.15500
F354        F  0.20499010  0.57164736  0.33927656    -0.14100
F355        F  0.20434114  0.45977329  0.28584455    -0.14100
F356        F  0.31000347  0.53317219  0.05815308    -0.15500
C357        C  0.12946965  0.99822488  0.11739148     0.14500
C358        C  0.15262432  0.97416911  0.13822610     0.01500
C359        C  0.14008540  0.94573340  0.16092753     0.16500
C360        C  0.10467663  0.94236230  0.16507545     0.25900
C361        C  0.08147913  0.96838672  0.14855658    -0.40400
C362        C  0.09418324  0.99545295  0.12252832     0.32900
C363        C  0.18979005  0.98054704  0.14020892     0.01600
F364        F  0.16224878  0.92237151  0.18165532    -0.12800
F365        F  0.07262670  0.01957060  0.10240244    -0.13300
C366        C  0.20244400  0.01064976  0.16496406     0.16500
C367        C  0.23760856  0.01677577  0.16815396     0.25900
C368        C  0.26049393  0.99295891  0.14686553    -0.40400
C369        C  0.24816297  0.96284623  0.12208041     0.32900
C370        C  0.21278169  0.95659835  0.11878010     0.14600
F371        F  0.18076626  0.03397179  0.18639303    -0.12700
F372        F  0.27034482  0.93961376  0.10159555    -0.13300
F373        F  0.24951638  0.04625561  0.19137488    -0.15500
F374        F  0.20087620  0.92758227  0.09428601    -0.14100
F375        F  0.14121405  0.02507591  0.09336439    -0.14100
F376        F  0.09346240  0.91445683  0.18726866    -0.15500
C377        C  0.01969854  0.70090416  0.18447179     0.14500
C378        C  0.98581118  0.71259456  0.17116468     0.01500
C379        C  0.95996598  0.68765727  0.16210360     0.16500
C380        C  0.96770069  0.65238616  0.16619763     0.25900
C381        C  0.00121142  0.64103888  0.18024207    -0.40400
C382        C  0.02721586  0.66550137  0.18906447     0.32900
C383        C  0.97751062  0.75050671  0.16720055     0.01600
F384        F  0.92719951  0.69722414  0.14833772    -0.12800
F385        F  0.05997996  0.65500076  0.20149025    -0.13300
C386        C  0.99850616  0.77157525  0.14114922     0.16500
C387        C  0.99204685  0.80729550  0.13969646     0.25900
C388        C  0.96332213  0.82265107  0.16174018    -0.40400
C389        C  0.94174237  0.80177057  0.18675055     0.32900
C390        C  0.94892948  0.76619142  0.18996960     0.14600
F391        F  0.02494866  0.75749335  0.11604724    -0.12700
F392        F  0.91454350  0.81612188  0.20993276    -0.13300
F393        F  0.01369404  0.82694803  0.11601170    -0.15500
F394        F  0.92868339  0.74743695  0.21715312    -0.14100
F395        F  0.04525843  0.72386816  0.19546559    -0.14100
F396        F  0.94244627  0.62900242  0.15597245    -0.15500
C397        C  0.22081389  0.97455965  0.99500046     0.14500
C398        C  0.18950682  0.98821116  0.30419154     0.01500
C399        C  0.21917099  0.96933060  0.29050511     0.16500
C400        C  0.25223716  0.98334965  0.29919049     0.25900
C401        C  0.27893298  0.95334218  0.98001126    -0.40400
C402        C  0.25622714  0.97994401  0.99496495     0.32900
C403        C  0.15370884  0.97395926  0.29414992     0.01600
F404        F  0.21626629  0.93752152  0.26779573    -0.12800
F405        F  0.26829684  0.01176376  0.00805149    -0.13300
C406        C  0.12732292  0.99474082  0.27287273     0.16500
C407        C  0.09303126  0.98395272  0.26895035     0.25900
C408        C  0.09577139  0.93262793  0.97786749    -0.40400
C409        C  0.11808121  0.90586392  0.99375496     0.32900
C410        C  0.15399116  0.90892897  0.99254185     0.14600
F411        F  0.13447663  0.02623838  0.25686442    -0.12700
F412        F  0.10521244  0.87737174  0.01260864    -0.13300
F413        F  0.06827181  0.00643506  0.25233496    -0.15500
F414        F  0.17466512  0.88345422  0.01090947    -0.14100
F415        F  0.20049313  0.99997947  0.01459517    -0.14100
F416        F  0.28027073  0.96344702  0.28878101    -0.15500
C417        C  0.93246431  0.74674658  0.35918376     0.14500
C418        C  0.95446151  0.72490334  0.33251411     0.01500
C419        C  0.97794505  0.73092469  0.98728337     0.16500
C420        C  0.98467308  0.76601167  0.99090334     0.25900
C421        C  0.96429851  0.78849486  0.01959580    -0.40400
C422        C  0.93588703  0.78233782  0.35913491     0.32900
C423        C  0.95095391  0.68713690  0.33346764     0.01600
F424        F  0.99749407  0.70989323  0.95851675    -0.12800
F425        F  0.91308559  0.80249445  0.38405648    -0.13300
C426        C  0.91878809  0.67140371  0.32239655     0.16500
C427        C  0.91557988  0.63571943  0.32583815     0.25900
C428        C  0.94074693  0.60842112  0.01089946    -0.40400
C429        C  0.97304999  0.62372943  0.01998006     0.32900
C430        C  0.97579820  0.65912930  0.02373041     0.14600
F431        F  0.89072013  0.69048923  0.30760520    -0.12700
F432        F  0.00230432  0.60416391  0.02299722    -0.13300
F433        F  0.88458962  0.62073508  0.31528545    -0.15500
F434        F  0.00695687  0.67294374  0.03752606    -0.14100
F435        F  0.90807852  0.73361069  0.38633722    -0.14100
F436        F  0.01082870  0.77781789  0.96571393    -0.15500
C437        C  0.49477749  0.70972140  0.12368345     0.14500
C438        C  0.51858500  0.68219862  0.13072555     0.01500
C439        C  0.55295171  0.69020472  0.14645467     0.16500
C440        C  0.56294110  0.72485807  0.15512443     0.25900
C441        C  0.53859359  0.75189135  0.14937288    -0.40400
C442        C  0.50450997  0.74390764  0.13396356     0.32900
C443        C  0.50641118  0.64562423  0.12533356     0.01600
F444        F  0.57652962  0.66455251  0.15505171    -0.12800
F445        F  0.48039747  0.76953065  0.12947331    -0.13300
C446        C  0.52351489  0.61963207  0.09738577     0.16500
C447        C  0.51203852  0.58520209  0.09489584     0.25900
C448        C  0.48256563  0.57620298  0.11913164    -0.40400
C449        C  0.46465272  0.60292178  0.14484064     0.32900
C450        C  0.47687673  0.63659689  0.14887293     0.14600
F451        F  0.55125055  0.62752983  0.07228972    -0.12700
F452        F  0.43573926  0.59653287  0.16837378    -0.13300
F453        F  0.52985833  0.56079648  0.06890382    -0.15500
F454        F  0.46031022  0.66024816  0.17786992    -0.14100
F455        F  0.46188263  0.70356475  0.10642225    -0.14100
F456        F  0.59615702  0.73202776  0.16956785    -0.15500
C457        C  0.67644667  0.96595891  0.16146725     0.14500
C458        C  0.69854206  0.93918183  0.17846444     0.01500
C459        C  0.68386461  0.90917316  0.19454768     0.16500
C460        C  0.64817545  0.90581706  0.19285136     0.25900
C461        C  0.62628233  0.93322024  0.17875397    -0.40400
C462        C  0.64055381  0.96304968  0.16207538     0.32900
C463        C  0.73666627  0.94198395  0.17800147     0.01600
F464        F  0.70398794  0.88298783  0.21210573    -0.12800
F465        F  0.61962453  0.98887317  0.14531573    -0.13300
C466        C  0.75327989  0.97175575  0.19789437     0.16500
C467        C  0.78893223  0.97503439  0.19549641     0.25900
C468        C  0.80902315  0.94821046  0.17396934    -0.40400
C469        C  0.79250947  0.91766523  0.15642109     0.32900
C470        C  0.75675728  0.91486091  0.15767655     0.14600
F471        F  0.73503695  0.99767094  0.22025267    -0.12700
F472        F  0.81073834  0.89046979  0.13727899    -0.13300
F473        F  0.80356089  0.00471887  0.21413508    -0.15500
F474        F  0.74171735  0.88586075  0.13752112    -0.14100
F475        F  0.68952035  0.99443754  0.14288528    -0.14100
F476        F  0.63491311  0.87515028  0.20310212    -0.15500
C477        C  0.43485413  0.71488482  0.28484456     0.14500
C478        C  0.45827536  0.69230036  0.30914090     0.01500
C479        C  0.49726387  0.71025699  0.99983708     0.16500
C480        C  0.50080265  0.74600228  0.00102318     0.25900
C481        C  0.46759219  0.76426273  0.31784559    -0.40400
C482        C  0.43939235  0.75066368  0.28958397     0.32900
C483        C  0.45178574  0.65471561  0.30954016     0.01600
F484        F  0.52320278  0.69059783  0.01990603    -0.12800
F485        F  0.41626513  0.77215033  0.26690751    -0.13300
C486        C  0.47838842  0.63027867  0.30072749     0.16500
C487        C  0.47356252  0.59529483  0.30785988     0.25900
C488        C  0.44156532  0.58391127  0.32169600    -0.40400
C489        C  0.42467317  0.61192501  0.00815532     0.32900
C490        C  0.43102093  0.64701419  0.00521659     0.14600
F491        F  0.50907345  0.64024885  0.28506706    -0.12700
F492        F  0.39556748  0.60214344  0.02866206    -0.13300
F493        F  0.49992175  0.57245421  0.30011457    -0.15500
F494        F  0.40821555  0.67049345  0.02388264    -0.14100
F495        F  0.40776490  0.70233294  0.25632430    -0.14100
F496        F  0.53092538  0.75980175  0.01907692    -0.15500
C497        C  0.76433163  0.91738808  0.38276170     0.14500
C498        C  0.75485259  0.88253109  0.37567985     0.01500
C499        C  0.78053744  0.86114017  0.01315539     0.16500
C500        C  0.81595051  0.86737129  0.01642805     0.25900
C501        C  0.82793398  0.90087364  0.02738013    -0.40400
C502        C  0.79899810  0.92667483  0.38499399     0.32900
C503        C  0.71757025  0.87360095  0.36629683     0.01600
F504        F  0.76968119  0.82910963  0.99792985    -0.12800
F505        F  0.80672999  0.96073624  0.38921706    -0.13300
C506        C  0.69674116  0.89232126  0.33261891     0.16500
C507        C  0.66149686  0.88599031  0.32530833     0.25900
C508        C  0.64788582  0.86694385  0.01010994    -0.40400
C509        C  0.67057833  0.84490000  0.03567810     0.32900
C510        C  0.70574377  0.85211764  0.04112401     0.14600
F511        F  0.71042591  0.91722217  0.30682339    -0.12700
F512        F  0.65850028  0.81635550  0.05530815    -0.13300
F513        F  0.64170247  0.90770483  0.29784872    -0.15500
F514        F  0.72674728  0.83090105  0.06789281    -0.14100
F515        F  0.73992330  0.94272329  0.38790630    -0.14100
F516        F  0.83846437  0.84105456  0.00624067    -0.15500
C517        C  0.90831583  0.22347669  0.16928842     0.14500
C518        C  0.93953898  0.20515653  0.16390043     0.01500
C519        C  0.96981348  0.22327662  0.15661763     0.16500
C520        C  0.96893967  0.25943031  0.15691149     0.25900
C521        C  0.93770326  0.27736855  0.16313440    -0.40400
C522        C  0.90726402  0.25907221  0.16694467     0.32900
C523        C  0.93988114  0.16725170  0.16578758     0.01600
F524        F  0.99992696  0.20598689  0.14872109    -0.12800
F525        F  0.87634240  0.27594454  0.16787968    -0.13300
C526        C  0.91571742  0.14782969  0.13648561     0.16500
C527        C  0.91424897  0.11226119  0.14009842     0.25900
C528        C  0.93681827  0.09557005  0.17345842    -0.40400
C529        C  0.96085978  0.11492656  0.20316854     0.32900
C530        C  0.96272342  0.15046306  0.19880978     0.14600
F531        F  0.89388580  0.16332223  0.10362199    -0.12700
F532        F  0.98239395  0.09948358  0.23669909    -0.13300
F533        F  0.89170255  0.09405746  0.10961320    -0.15500
F534        F  0.98655299  0.16844498  0.22730536    -0.14100
F535        F  0.87883235  0.20697373  0.17766838    -0.14100
F536        F  0.99821810  0.27686987  0.15081893    -0.15500
C537        C  0.63115407  0.37492621  0.18775402     0.14500
C538        C  0.65389720  0.39202878  0.15942413     0.01500
C539        C  0.64256752  0.42242896  0.13683381     0.16500
C540        C  0.60907132  0.43523449  0.14234068     0.25900
C541        C  0.58598399  0.41737397  0.16927490    -0.40400
C542        C  0.59731748  0.38701078  0.19171041     0.32900
C543        C  0.68932496  0.37808670  0.15403121     0.01600
F544        F  0.66351502  0.43931446  0.10831226    -0.12800
F545        F  0.57515428  0.36788754  0.21524921    -0.13300
C546        C  0.69512140  0.34270505  0.14153590     0.16500
C547        C  0.72875253  0.32909074  0.14091640     0.25900
C548        C  0.75667881  0.35090256  0.15099416    -0.40400
C549        C  0.75098032  0.38656128  0.15897833     0.26900
C550        C  0.71770535  0.39991914  0.16213638     0.14600
F551        F  0.66826015  0.32152567  0.12922928    -0.12700
F552        F  0.77797630  0.40840432  0.16369686    -0.13300
F553        F  0.73415277  0.29493739  0.13016945    -0.15500
F554        F  0.71342106  0.43401589  0.17441995    -0.14100
F555        F  0.64164423  0.34623444  0.21138951    -0.14100
F556        F  0.59914068  0.46499381  0.12099847    -0.15500
C557        C  0.92007427  0.19635024  0.98104399     0.14500
C558        C  0.89652375  0.17150195  0.99415466     0.01500
C559        C  0.86298379  0.19024962  0.34812341     0.16500
C560        C  0.85380555  0.22547454  0.34726746     0.25900
C561        C  0.87831741  0.24362779  0.99409606    -0.40400
C562        C  0.91094012  0.23166286  0.98040195     0.32900
C563        C  0.90640210  0.13328009  0.99380689     0.01600
F564        F  0.84132844  0.16821887  0.36756053    -0.12800
F565        F  0.93447894  0.25454817  0.96771540    -0.13300
C566        C  0.93808166  0.12173901  0.01588950     0.16500
C567        C  0.94789190  0.08644938  0.01410875     0.25900
C568        C  0.92618444  0.06097375  0.99090002    -0.40400
C569        C  0.89099932  0.08017023  0.31080624     0.32900
C570        C  0.88240247  0.11541987  0.30921214     0.14600
F571        F  0.95946016  0.14457833  0.04072966    -0.12700
F572        F  0.86900063  0.05700844  0.28789737    -0.13300
F573        F  0.97864440  0.07729956  0.03632943    -0.15500
F574        F  0.85256460  0.12507602  0.28487461    -0.14100
F575        F  0.95226764  0.18663335  0.96890464    -0.14100
F576        F  0.82336278  0.23667194  0.36496887    -0.15500
C577        C  0.61313143  0.39479094  0.31875265     0.14500
C578        C  0.63535144  0.42292396  0.32835694     0.01500
C579        C  0.62211956  0.45656247  0.00235359     0.16500
C580        C  0.58614238  0.46047091  0.00640988     0.25900
C581        C  0.56224625  0.43126982  0.33493706    -0.40400
C582        C  0.57718852  0.39892295  0.32174124     0.32900
C583        C  0.67384940  0.41841534  0.32495650     0.01600
F584        F  0.64235660  0.48448085  0.01208097    -0.12800
F585        F  0.55699268  0.37092040  0.31241568    -0.13300
C586        C  0.69274155  0.43909738  0.29527807     0.16500
C587        C  0.72900779  0.43533344  0.29394292     0.25900
C588        C  0.74728534  0.41107136  0.32257729    -0.40400
C589        C  0.72962012  0.39070457  0.01791709     0.32900
C590        C  0.69348269  0.39452248  0.01702386     0.14600
F591        F  0.67600816  0.46268932  0.26708305    -0.12700
F592        F  0.74479652  0.36527595  0.04408861    -0.13300
F593        F  0.74639117  0.45590113  0.26550103    -0.15500
F594        F  0.67548672  0.37386722  0.04451329    -0.14100
F595        F  0.62617403  0.36312749  0.30581373    -0.14100
F596        F  0.57304442  0.49226622  0.01870318    -0.15500
C597        C  0.86667789  0.37649364  0.61031261     0.31900
C598        C  0.86784895  0.37602894  0.38253526     0.31900
C599        C  0.89933792  0.38929928  0.64015522    -0.04300
C600        C  0.83790017  0.39791604  0.63727784    -0.05100
C601        C  0.86297443  0.34093480  0.63378426    -0.05000
C602        C  0.90039415  0.38906804  0.35906118    -0.04300
C603        C  0.83886746  0.39678711  0.35417243    -0.05100
C604        C  0.86425452  0.34031718  0.35446716    -0.05000
C605        C  0.93131762  0.40310258  0.37658470    -0.30400
N606        N  0.94989871  0.41122877  0.33807229     0.16100
C607        C  0.92997307  0.40305623  0.62815351    -0.30400
H608        H  0.93698068  0.40797416  0.59156942     0.18100
C609        C  0.80535737  0.40519728  0.36595649    -0.29300
N610        N  0.78415213  0.41070730  0.66150207     0.14900
C611        C  0.80418607  0.40687662  0.62229684    -0.29300
C612        C  0.86507754  0.30650422  0.36819138    -0.29600
N613        N  0.86691030  0.28522754  0.32752961     0.15400
H614        H  0.86708723  0.29796476  0.40528374     0.18000
C615        C  0.86317635  0.30670689  0.61732340    -0.29600
H616        H  0.86510000  0.29724410  0.58002497     0.18000
H617        H  0.79417344  0.40717503  0.58488863     0.18000
H618        H  0.93883282  0.40844995  0.41474647     0.18100
H619        H  0.79587031  0.40607338  0.40237828     0.18000
C620        C  0.86822968  0.37699217  0.44411601     0.31900
C621        C  0.86779266  0.37734515  0.54874074     0.31900
C622        C  0.86413886  0.41277690  0.47185677    -0.04300
C623        C  0.84043538  0.35582025  0.46683445    -0.05100
C624        C  0.90113421  0.36315412  0.47205469    -0.05000
C625        C  0.86414083  0.41307639  0.52459640    -0.04300
C626        C  0.84017624  0.35609590  0.51855902    -0.05100
C627        C  0.90090566  0.36319824  0.52446278    -0.05000
C628        C  0.88121257  0.44289599  0.54099587    -0.30400
N629        N  0.89233964  0.45977427  0.50270143     0.16100
C630        C  0.88078277  0.44241715  0.46103593    -0.30400
H631        H  0.88889427  0.44747828  0.42510146     0.18100
C632        C  0.80763697  0.34678015  0.52924539    -0.29300
N633        N  0.78791677  0.34226098  0.48710215     0.14900
C634        C  0.80812775  0.34609163  0.44914252    -0.29300
C635        C  0.92218041  0.33619177  0.53814068    -0.29600
N636        N  0.93445009  0.31954897  0.49787440     0.15400
H637        H  0.92286954  0.32514345  0.57370982     0.18000
C638        C  0.92256848  0.33625092  0.45800575    -0.29600
H639        H  0.92378660  0.32540125  0.42098844     0.18000
H640        H  0.79866864  0.34678143  0.41148684     0.18000
H641        H  0.88964993  0.44855593  0.57868188     0.18100
H642        H  0.79731484  0.34874880  0.56512703     0.18000
C643        C  0.52110758  0.87384474  0.38516657     0.31900
C644        C  0.52487887  0.87550164  0.61581637     0.31900
C645        C  0.51407906  0.90891289  0.35962537    -0.04300
C646        C  0.55481508  0.86211442  0.36139591    -0.05100
C647        C  0.49505793  0.85007738  0.35438266    -0.05000
C648        C  0.52248698  0.91100432  0.64660942    -0.04300
C649        C  0.55653009  0.85865742  0.64396513    -0.05100
C650        C  0.49503973  0.85559824  0.63717737    -0.05000
C651        C  0.50440178  0.94132482  0.63673738    -0.30400
N652        N  0.46845856  0.94051778  0.33189962     0.16100
C653        C  0.48869885  0.93280571  0.37149229    -0.30400
H654        H  0.48723332  0.94562288  0.40670071     0.18100
C655        C  0.59105724  0.85546780  0.63443868    -0.29300
N656        N  0.60945503  0.85430360  0.34239109     0.14900
C657        C  0.58803619  0.85621783  0.37982708    -0.29300
C658        C  0.47994803  0.82537626  0.61849941    -0.29600
N659        N  0.47179961  0.80587398  0.65560225     0.15400
H660        H  0.47957039  0.81589855  0.58072101     0.18000
C661        C  0.48056244  0.81922613  0.36445181    -0.29600
H662        H  0.47899052  0.80923463  0.40032508     0.18000
H663        H  0.59659976  0.85673719  0.41813060     0.18000
H664        H  0.50003516  0.95187674  0.60124672     0.18100
H665        H  0.60158322  0.85847332  0.59940266     0.18000
C666        C  0.52436877  0.87470306  0.55343117     0.31900
C667        C  0.52168221  0.87425635  0.44755068     0.31900
C668        C  0.48909356  0.88341561  0.52631505    -0.04300
C669        C  0.54751990  0.90035543  0.52891667    -0.05100
C670        C  0.53424596  0.84032853  0.52473735    -0.05000
C671        C  0.48719652  0.88218292  0.47355893    -0.04300
C672        C  0.54596070  0.90043906  0.47655338    -0.05100
C673        C  0.53349554  0.84064113  0.47278520    -0.05000
C674        C  0.46335383  0.90767589  0.46141057    -0.30400
N675        N  0.45605695  0.92823862  0.50076559     0.16100
C676        C  0.46783082  0.91064741  0.53970627    -0.30400
H677        H  0.46180845  0.91656861  0.57653252     0.18100
C678        C  0.57564127  0.91601761  0.46401781    -0.29300
N679        N  0.59543105  0.92388870  0.50521508     0.14900
C680        C  0.57836840  0.91505113  0.54454027    -0.29300
C681        C  0.53860984  0.80711770  0.45576732    -0.29600
N682        N  0.54053800  0.78589071  0.49381254     0.15400
H683        H  0.53819810  0.79850759  0.41785034     0.18000
C684        C  0.53859065  0.80584571  0.53601163    -0.29600
H685        H  0.53719228  0.79566277  0.57192262     0.18000
H686        H  0.58920341  0.91610348  0.58170152     0.18000
H687        H  0.45059444  0.90901042  0.42611300     0.18100
H688        H  0.58430231  0.91767438  0.42738565     0.18000
Zn689      Zn  0.89959471  0.95985300  0.65482229     1.49700
Zn690      Zn  0.98677026  0.97131983  0.34422839     1.49400
Zn691      Zn  0.94092948  0.89975091  0.38468114     1.49100
Zn692      Zn  0.96804895  0.90256513  0.61628135     1.49500
O693        O  0.95292967  0.92973546  0.33290911    -1.82300
O694        O  0.90285326  0.01272122  0.66713155    -0.72900
O695        O  0.00790545  0.95876734  0.40792394    -0.72700
O696        O  0.88769551  0.89570026  0.39437380    -0.72200
O697        O  0.96306056  0.02123328  0.33851310    -0.72900
O698        O  0.85919136  0.94251811  0.68716887    -0.72500
O699        O  0.97688345  0.91781400  0.43358470    -0.73100
O700        O  0.96479856  0.85107486  0.62791005    -0.72500
O701        O  0.03094499  0.96963815  0.31238075    -0.73200
O702        O  0.95240024  0.85191344  0.36869351    -0.72600
O703        O  0.02196835  0.91446137  0.61381054    -0.73100
O704        O  0.93004186  0.91271421  0.56456783    -0.73000
O705        O  0.88722924  0.94613915  0.58614411    -0.72800
C706        C  0.93122289  0.03141509  0.33570628     0.79000
C707        C  0.97962898  0.94850664  0.42087925     0.79500
C708        C  0.86139301  0.91208498  0.37638837     0.78500
C709        C  0.96461438  0.83467727  0.33316789     0.78800
C710        C  0.04664626  0.94487242  0.29087445     0.80000
C711        C  0.91825358  0.94254295  0.57565613     0.79000
Zn712      Zn  0.98049142  0.00074818  0.48263284     1.49700
Zn713      Zn  0.91581415  0.99837711  0.51980288     1.49400
Zn714      Zn  0.91893964  0.93016220  0.46533694     1.49100
Zn715      Zn  0.98616267  0.93481236  0.53562730     1.49500
O716        O  0.95135344  0.96202163  0.50139845    -1.82300
O717        O  0.97500977  0.04641921  0.51835378    -0.72900
O718        O  0.86535404  0.98658955  0.51306908    -0.72700
O719        O  0.91944273  0.95789351  0.40652919    -0.72200
O720        O  0.92022243  0.04577963  0.49529728    -0.72900
O721        O  0.95263888  0.00274703  0.42076490    -0.72500
O722        O  0.86957690  0.93278107  0.48429217    -0.73100
O723        O  0.97919474  0.88177472  0.52552913    -0.72500
O724        O  0.93202525  0.00115306  0.58680518    -0.73200
O725        O  0.93496221  0.87808755  0.46982512    -0.72600
O726        O  0.97406221  0.96358310  0.59341203    -0.73100
O727        O  0.03522243  0.94230094  0.51702848    -0.73000
O728        O  0.03295896  0.99168026  0.48052573    -0.72800
C729        C  0.94730746  0.06262818  0.50711448     0.79000
C730        C  0.85136955  0.95799218  0.50036675     0.79500
C731        C  0.94920589  0.97070291  0.41090108     0.78500
C732        C  0.95869012  0.86377706  0.49679288     0.78800
C733        C  0.94207198  0.97026282  0.59124238     0.80000
C734        C  0.05024569  0.96556885  0.49548184     0.79000
C735        C  0.00254500  0.51737726  0.62737993     0.31900
C736        C  0.00240001  0.51710923  0.39808751     0.31900
C737        C  0.00501831  0.48143237  0.65093605    -0.04300
C738        C  0.03092811  0.53739899  0.65810927    -0.05100
C739        C  0.96992755  0.53275522  0.65169176    -0.05000
C740        C  0.00586216  0.48112249  0.37102573    -0.04300
C741        C  0.03122321  0.53699146  0.37533950    -0.05100
C742        C  0.97013757  0.53204425  0.36900440    -0.05000
C743        C  0.98934288  0.45165281  0.38244895    -0.30400
N744        N  0.97845702  0.43365552  0.34103650     0.16100
C745        C  0.98806443  0.45164102  0.63432865    -0.30400
H746        H  0.97964728  0.44603027  0.59664141     0.18100
C747        C  0.06372895  0.54617534  0.39300751    -0.29300
N748        N  0.08297749  0.55112882  0.69039430     0.14900
C749        C  0.06355867  0.54685165  0.64790373    -0.29300
C750        C  0.95176995  0.56183640  0.38088134    -0.29600
N751        N  0.94262844  0.57880538  0.33994327     0.15400
H752        H  0.95121870  0.57381002  0.41727976     0.18000
C753        C  0.95162192  0.56195941  0.63845765    -0.29600
H754        H  0.95151658  0.57276119  0.60284798     0.18000
H755        H  0.07406227  0.54534271  0.61212654     0.18000
H756        H  0.98103287  0.44693026  0.41837922     0.18100
H757        H  0.07345397  0.54482367  0.43055584     0.18000
C758        C  0.00272247  0.51756702  0.46001195     0.31900
C759        C  0.00362685  0.51814916  0.56579306     0.31900
C760        C  0.97022798  0.50484645  0.48403904    -0.04300
C761        C  0.03138259  0.49578579  0.48721918    -0.05100
C762        C  0.00740798  0.55277064  0.48911233    -0.05000
C763        C  0.97072592  0.50506165  0.53591250    -0.04300
C764        C  0.03236786  0.49618426  0.53960048    -0.05100
C765        C  0.00761793  0.55347674  0.54126993    -0.05000
C766        C  0.93980593  0.49144195  0.54764074    -0.30400
N767        N  0.92106900  0.48209881  0.50568059     0.16100
C768        C  0.93907097  0.49101056  0.46694661    -0.30400
H769        H  0.93109693  0.48621441  0.42881588     0.18100
C770        C  0.06624374  0.48673061  0.55399782    -0.29300
N771        N  0.08499687  0.48043096  0.51379627     0.14900
C772        C  0.06382794  0.48544364  0.47363295    -0.29300
C773        C  0.00721138  0.58824545  0.55656817    -0.29600
N774        N  0.00644981  0.60784147  0.51651398     0.15400
H775        H  0.00535267  0.59856609  0.59377652     0.18000
C776        C  0.00723136  0.58651788  0.47592294    -0.29600
H777        H  0.00559795  0.59519781  0.43915964     0.18000
H778        H  0.07240994  0.48487545  0.43699274     0.18000
H779        H  0.93238887  0.48711270  0.58424192     0.18100
H780        H  0.07728690  0.48735419  0.59114514     0.18000
C781        C  0.37852177  0.01562156  0.38498497     0.31900
C782        C  0.37730306  0.01259205  0.61544661     0.31900
C783        C  0.38627519  0.98116091  0.35535955    -0.04300
C784        C  0.34544955  0.02785399  0.35650449    -0.05100
C785        C  0.40540819  0.03953820  0.36527414    -0.05000
C786        C  0.40903928  0.99702895  0.64604626    -0.04300
C787        C  0.34754407  0.99544852  0.64060220    -0.05100
C788        C  0.37643493  0.04860215  0.64306255    -0.05000
C789        C  0.43389541  0.97215962  0.63960509    -0.30400
N790        N  0.43292927  0.95125941  0.33086941     0.16100
C791        C  0.41257454  0.95830484  0.36823114    -0.30400
H792        H  0.41369181  0.94486125  0.40129175     0.18100
C793        C  0.31279867  0.99308286  0.62751566    -0.29300
N794        N  0.29084232  0.03156574  0.32657051     0.14900
C795        C  0.31114377  0.02882596  0.36801240    -0.29300
C796        C  0.39104925  0.07969964  0.63498963    -0.29600
N797        N  0.38766473  0.10129947  0.67456407     0.15400
H798        H  0.40337491  0.08619189  0.60261830     0.18000
C799        C  0.41981967  0.06949358  0.38617613    -0.29600
H800        H  0.41863595  0.07862652  0.42394097     0.18000
H801        H  0.30138938  0.02438898  0.40329926     0.18000
H802        H  0.43155601  0.95134038  0.61266380     0.18100
H803        H  0.30031291  0.00055803  0.59348512     0.18000
C804        C  0.37614749  0.01247255  0.55173739     0.31900
C805        C  0.37778444  0.01464170  0.44643004     0.31900
C806        C  0.41225361  0.00854827  0.52858619    -0.04300
C807        C  0.35619638  0.98377991  0.51895113    -0.05100
C808        C  0.36126906  0.04577507  0.52577853    -0.05000
C809        C  0.41299009  0.00920272  0.47598002    -0.04300
C810        C  0.35615101  0.98598802  0.46700938    -0.05100
C811        C  0.36346377  0.04697325  0.47437312    -0.05000
C812        C  0.43684388  0.98370438  0.46356931    -0.30400
N813        N  0.44514132  0.96379501  0.50130961     0.16100
C814        C  0.43568395  0.98255225  0.54053045    -0.30400
H815        H  0.45640215  0.98924910  0.56687805     0.18100
C816        C  0.32733944  0.96872435  0.44737681    -0.29300
N817        N  0.30997358  0.95606441  0.48383513     0.14900
C818        C  0.32903199  0.96233719  0.52623467    -0.29300
C819        C  0.35781993  0.08107566  0.46232652    -0.29600
N820        N  0.35184743  0.10079433  0.50334191     0.15400
H821        H  0.36123772  0.09150760  0.42707073     0.18000
C822        C  0.35058430  0.07899034  0.54054607    -0.29600
H823        H  0.34345323  0.08776281  0.57643950     0.18000
H824        H  0.32193886  0.95273371  0.56018089     0.18000
H825        H  0.45039273  0.98305908  0.43065466     0.18100
H826        H  0.31730416  0.96885554  0.40980491     0.18000
Zn827      Zn  0.39104634  0.48987778  0.64139062     1.49700
Zn828      Zn  0.45919969  0.47822530  0.36551175     1.49400
Zn829      Zn  0.38359600  0.42067823  0.34574500     1.49100
Zn830      Zn  0.44620700  0.41373839  0.63057743     1.49500
O831        O  0.42396751  0.45331787  0.66323989    -1.82300
O832        O  0.40803104  0.53886675  0.64238780    -0.72900
O833        O  0.42872147  0.47708492  0.42065779    -0.72700
O834        O  0.33574368  0.43449642  0.31797251    -0.72200
O835        O  0.46007065  0.52810112  0.34635008    -0.72900
O836        O  0.34950764  0.49472590  0.67896636    -0.72500
O837        O  0.38345121  0.44459414  0.41012164    -0.73100
O838        O  0.43500292  0.36803687  0.65455813    -0.72500
O839        O  0.51026004  0.45946631  0.36283145    -0.73200
O840        O  0.38954551  0.36677840  0.34519302    -0.72600
O841        O  0.50107178  0.41664554  0.63804693    -0.73100
O842        O  0.41390190  0.42035424  0.57146961    -0.73000
O843        O  0.37944696  0.46561255  0.57820934    -0.72800
C844        C  0.43674253  0.55099944  0.65899280     0.79000
C845        C  0.41548964  0.44752871  0.41809198     0.79500
C846        C  0.32648751  0.47256618  0.66930241     0.78500
C847        C  0.40800448  0.35615348  0.67090416     0.78800
C848        C  0.52141425  0.43683049  0.66419632     0.80000
C849        C  0.40922288  0.45271289  0.57184802     0.79000
Zn850      Zn  0.48341232  0.45454009  0.45255592     1.49700
Zn851      Zn  0.47418427  0.41776724  0.55200166     1.49400
Zn852      Zn  0.42073654  0.48934921  0.50504651     1.49100
Zn853      Zn  0.40859700  0.40748856  0.48218420     1.49500
O854        O  0.44869363  0.44158544  0.49918420    -1.82300
O855        O  0.52980789  0.43820241  0.47169159    -0.72900
O856        O  0.46864682  0.46234008  0.59365525    -0.72700
O857        O  0.44006545  0.53026706  0.47413194    -0.72200
O858        O  0.52442087  0.41107436  0.53995257    -0.72900
O859        O  0.48915383  0.50885573  0.44706059    -0.72500
O860        O  0.43596703  0.50615468  0.57206536    -0.73100
O861        O  0.35825539  0.42860674  0.48566929    -0.72500
O862        O  0.45602102  0.36561787  0.56141046    -0.73200
O863        O  0.36573995  0.48559318  0.49342395    -0.72600
O864        O  0.40756408  0.36414456  0.51487405    -0.73100
O865        O  0.42566906  0.38834938  0.41967234    -0.73000
O866        O  0.46823339  0.41974862  0.39914065    -0.72800
C867        C  0.54264324  0.42067219  0.50619105     0.79000
C868        C  0.43910529  0.47510551  0.58233894     0.79500
C869        C  0.46984396  0.53492364  0.45876448     0.78500
C870        C  0.34560507  0.45942490  0.48906353     0.78800
C871        C  0.42926363  0.34936959  0.54313379     0.80000
C872        C  0.43695775  0.41684084  0.40843955     0.79000
C873        C  0.37711044  0.26926960  0.55746393     0.14500
C874        C  0.39852186  0.24259347  0.53832526     0.01500
C875        C  0.43230044  0.25158540  0.52690652     0.16500
C876        C  0.44399761  0.28580497  0.53422948     0.25900
C877        C  0.42192527  0.31242883  0.55117076    -0.40400
C878        C  0.38828087  0.30359298  0.56235149     0.32900
C879        C  0.38566859  0.20593585  0.52935010     0.01600
F880        F  0.45338026  0.22782500  0.50517215    -0.12800
F881        F  0.36555232  0.32871319  0.57662557    -0.13300
C882        C  0.35233601  0.19875239  0.50750842     0.16500
C883        C  0.34079849  0.16442532  0.49973163     0.25900
C884        C  0.36276640  0.13637754  0.51111244    -0.40400
C885        C  0.39643473  0.14342851  0.53029114     0.32900
C886        C  0.40711899  0.17741679  0.54149521     0.14600
F887        F  0.33112930  0.22480041  0.49218430    -0.12700
F888        F  0.41957035  0.11717325  0.53684643    -0.13300
F889        F  0.30837476  0.15856159  0.48036776    -0.15500
F890        F  0.43846309  0.18221328  0.56514899    -0.14100
F891        F  0.34489108  0.26253098  0.57078053    -0.14100
F892        F  0.47588270  0.29343187  0.52035255    -0.15500
C893        C  0.45239003  0.25625703  0.33838328     0.14500
C894        C  0.40241279  0.24700017  0.68526819     0.01500
C895        C  0.37569235  0.26881557  0.70187690     0.16500
C896        C  0.37772355  0.30452923  0.69877280     0.25900
C897        C  0.40691241  0.31895241  0.67987789    -0.40400
C898        C  0.44979327  0.29192989  0.33228187     0.32900
C899        C  0.42671282  0.19980229  0.35905365     0.01600
F900        F  0.34738644  0.25549203  0.72046441    -0.12800
F901        F  0.47694553  0.30749439  0.31390217    -0.13300
C902        C  0.45565687  0.18174623  0.37957570     0.16500
C903        C  0.45727015  0.14530857  0.37686632     0.25900
C904        C  0.39226178  0.13751690  0.67595262    -0.40400
C905        C  0.36608851  0.15858108  0.65574694     0.32900
C906        C  0.36931936  0.19425059  0.65885852     0.14600
F907        F  0.48225045  0.19935070  0.40263475    -0.12700
F908        F  0.33722877  0.14440439  0.63355178    -0.13300
F909        F  0.48554162  0.12859989  0.39612776    -0.15500
F910        F  0.34388611  0.21403105  0.63788444    -0.14100
F911        F  0.48092476  0.23888219  0.32338893    -0.14100
F912        F  0.35094101  0.32474915  0.71368669    -0.15500
C913        C  0.24850362  0.44381507  0.46764012     0.14500
C914        C  0.23374706  0.47056292  0.49689636     0.01500
C915        C  0.25623142  0.49456225  0.52173736     0.16500
C916        C  0.29229320  0.49150822  0.51824987     0.25900
C917        C  0.30707010  0.46432300  0.48985023    -0.40400
C918        C  0.28456675  0.44056459  0.46450566     0.32900
C919        C  0.19520311  0.47313734  0.50213817     0.01600
F920        F  0.24339830  0.52027101  0.55130655    -0.12800
F921        F  0.29745341  0.41428908  0.43594516    -0.13300
C922        C  0.17652285  0.44476437  0.51663815     0.16500
C923        C  0.14056518  0.44740076  0.52200109     0.25900
C924        C  0.12234732  0.47832939  0.51285121    -0.40400
C925        C  0.14092083  0.50669637  0.49884828     0.32900
C926        C  0.17673848  0.50417401  0.49347727     0.14600
F927        F  0.19322191  0.41459949  0.52664535    -0.12700
F928        F  0.12422370  0.53707153  0.49039133    -0.13300
F929        F  0.12336989  0.41954404  0.53530395    -0.15500
F930        F  0.19319418  0.53201653  0.47862168    -0.14100
F931        F  0.22792676  0.42095195  0.44135333    -0.14100
F932        F  0.31284756  0.51424899  0.54480248    -0.15500
C933        C  0.23008650  0.48006194  0.65237671     0.14500
C934        C  0.22266635  0.50443815  0.69033941     0.01500
C935        C  0.25009394  0.51436474  0.38055491     0.16500
C936        C  0.28365205  0.50179482  0.37613782     0.25900
C937        C  0.29066441  0.48191948  0.67770943    -0.40400
C938        C  0.26382836  0.46837155  0.64666781     0.32900
C939        C  0.18758726  0.51410974  0.35417726     0.01600
F940        F  0.24405707  0.54020902  0.41444230    -0.12800
F941        F  0.27044126  0.44521891  0.60935873    -0.13300
C942        C  0.16095948  0.49140296  0.36165239     0.16500
C943        C  0.12705131  0.50346825  0.36163854     0.25900
C944        C  0.11831375  0.54037116  0.69342255    -0.40400
C945        C  0.14475607  0.56438488  0.69520403     0.32900
C946        C  0.17912593  0.55284984  0.69554752     0.14600
F947        F  0.16773695  0.45736591  0.36813995    -0.12700
F948        F  0.13716460  0.59869604  0.69508014    -0.13300
F949        F  0.10140833  0.48040468  0.36324547    -0.15500
F950        F  0.20448401  0.57631494  0.69402300    -0.14100
F951        F  0.20482622  0.46862567  0.61961873    -0.14100
F952        F  0.30923397  0.51630525  0.40573423    -0.15500
C953        C  0.14181461  0.98481765  0.46137088     0.14500
C954        C  0.16080548  0.95632005  0.47942562     0.01500
C955        C  0.14269595  0.92954441  0.49872668     0.16500
C956        C  0.10680792  0.93193027  0.50207782     0.25900
C957        C  0.08801859  0.96167126  0.48738587    -0.40400
C958        C  0.10596590  0.98755698  0.46542025     0.32900
C959        C  0.19942351  0.95553377  0.48025352     0.01600
F960        F  0.15981800  0.90142510  0.51606230    -0.12800
F961        F  0.08900973  0.01578556  0.44802815    -0.13300
C962        C  0.21802416  0.98388354  0.50110267     0.16500
C963        C  0.25403003  0.98416753  0.50073978     0.25900
C964        C  0.27270728  0.95525848  0.48246219    -0.40400
C965        C  0.25441679  0.92669838  0.46208555     0.32900
C966        C  0.21804548  0.92693999  0.46045874     0.14600
F967        F  0.20132082  0.01134516  0.52236351    -0.12700
F968        F  0.27179171  0.89877539  0.44352744    -0.13300
F969        F  0.27074718  0.01326922  0.51698211    -0.15500
F970        F  0.20103302  0.89955892  0.43864318    -0.14100
F971        F  0.15806844  0.01023787  0.43980219    -0.14100
F972        F  0.09068553  0.90514271  0.52065284    -0.15500
C973        C  0.01706260  0.70404443  0.51645274     0.14500
C974        C  0.98338689  0.71543946  0.50185217     0.01500
C975        C  0.95746458  0.69056240  0.49348428     0.16500
C976        C  0.96495248  0.65542887  0.49988557     0.25900
C977        C  0.99839889  0.64428137  0.51498850    -0.40400
C978        C  0.02438794  0.66883177  0.52313389     0.32900
C979        C  0.97516037  0.75318191  0.49714746     0.01600
F980        F  0.92499562  0.70015160  0.47795334    -0.12800
F981        F  0.05701332  0.65852155  0.53667294    -0.13300
C982        C  0.99492553  0.77371989  0.46854565     0.16500
C983        C  0.98915595  0.80961073  0.46794962     0.25900
C984        C  0.96295045  0.82563982  0.49477886    -0.40400
C985        C  0.94222431  0.80514182  0.52169490     0.32900
C986        C  0.94823842  0.76930937  0.52289710     0.14600
F987        F  0.01973717  0.75900754  0.44088670    -0.12700
F988        F  0.91695641  0.82001362  0.54836586    -0.13300
F989        F  0.00940133  0.82885931  0.44143381    -0.15500
F990        F  0.92864702  0.75061182  0.55107201    -0.14100
F991        F  0.04279126  0.72710216  0.52523824    -0.14100
F992        F  0.93959736  0.63200776  0.49078731    -0.15500
C993        C  0.19426169  0.02141655  0.32731957     0.14500
C994        C  0.18846061  0.95820093  0.64478519     0.01500
C995        C  0.21401849  0.93625984  0.62494713     0.16500
C996        C  0.24914606  0.94396997  0.63306535     0.25900
C997        C  0.25660061  0.01718064  0.31966086    -0.40400
C998        C  0.22733687  0.03578219  0.33447489     0.32900
C999        C  0.15080401  0.95141524  0.63413900     0.01600
F1000       F  0.20502186  0.90797214  0.59630677    -0.12800
F1001       F  0.23083150  0.06787458  0.35600885    -0.13300
C1002       C  0.12895516  0.97739581  0.61487604     0.16500
C1003       C  0.09317473  0.97309690  0.61004683     0.25900
C1004       C  0.08386490  0.95114128  0.28356054    -0.40400
C1005       C  0.11039065  0.92923735  0.30208234     0.32900
C1006       C  0.14489283  0.94058341  0.30767174     0.14600
F1007       F  0.14224929  0.00741117  0.60145190    -0.12700
F1008       F  0.10252389  0.89812962  0.31879940    -0.13300
F1009       F  0.07295321  0.99983240  0.59443665    -0.15500
F1010       F  0.16913219  0.91978232  0.32942889    -0.14100
F1011       F  0.16682606  0.03990402  0.34381036    -0.14100
F1012       F  0.27316048  0.92285028  0.61239627    -0.15500
C1013       C  0.92396878  0.74963382  0.69866105     0.14500
C1014       C  0.94659813  0.72712862  0.67402325     0.01500
C1015       C  0.98058053  0.73929991  0.30669568     0.16500
C1016       C  0.98423189  0.77504494  0.30673476     0.25900
C1017       C  0.96196083  0.79688876  0.33305780    -0.40400
C1018       C  0.92626206  0.78517755  0.69488487     0.32900
C1019       C  0.94427133  0.68933521  0.67803930     0.01600
F1020       F  0.00255217  0.71869658  0.28135637    -0.12800
F1021       F  0.90324111  0.80598387  0.71837881    -0.13300
C1022       C  0.91287858  0.67214092  0.66702558     0.16500
C1023       C  0.91151817  0.63613269  0.66902056     0.25900
C1024       C  0.94451959  0.61554974  0.33934982    -0.40400
C1025       C  0.97679391  0.63111546  0.34814846     0.32900
C1026       C  0.97983275  0.66661754  0.34666224     0.14600
F1027       F  0.88393515  0.69001957  0.65255393    -0.12700
F1028       F  0.00571072  0.61160749  0.35644316    -0.13300
F1029       F  0.88133454  0.61977731  0.65772467    -0.15500
F1030       F  0.01100445  0.68093613  0.35868936    -0.14100
F1031       F  0.89990918  0.73730813  0.72710140    -0.14100
F1032       F  0.00966038  0.78818072  0.28148061    -0.15500
C1033       C  0.49137920  0.70446024  0.46436502     0.14500
C1034       C  0.51648773  0.67835223  0.47328368     0.01500
C1035       C  0.55019262  0.68849051  0.48934133     0.16500
C1036       C  0.55823523  0.72382366  0.49674199     0.25900
C1037       C  0.53279771  0.74953431  0.48830384    -0.40400
C1038       C  0.49939107  0.73941336  0.47208047     0.32900
C1039       C  0.50611442  0.64108741  0.46899876     0.01600
F1040       F  0.57504277  0.66427795  0.49920612    -0.12800
F1041       F  0.47429638  0.76365877  0.46392227    -0.13300
C1042       C  0.52332742  0.61570227  0.44004077     0.16500
C1043       C  0.51174490  0.58120840  0.43569067     0.25900
C1044       C  0.48215986  0.57156791  0.45922103    -0.40400
C1045       C  0.46532465  0.59731641  0.48819448     0.32900
C1046       C  0.47740611  0.63104988  0.49349666     0.14600
F1047       F  0.55101850  0.62434298  0.41537453    -0.12700
F1048       F  0.43752841  0.58983429  0.51348905    -0.13300
F1049       F  0.52942536  0.55742247  0.40842494    -0.15500
F1050       F  0.46115188  0.65401302  0.52387048    -0.14100
F1051       F  0.45889677  0.69608566  0.44747269    -0.14100
F1052       F  0.59077882  0.73298896  0.51203119    -0.15500
C1053       C  0.68068291  0.96307585  0.48452013     0.14500
C1054       C  0.70384027  0.94031150  0.50917367     0.01500
C1055       C  0.69033119  0.91198423  0.53155045     0.16500
C1056       C  0.65503152  0.90594318  0.52796019     0.25900
C1057       C  0.63191485  0.92961458  0.50600322    -0.40400
C1058       C  0.64496710  0.95795639  0.48360050     0.32900
C1059       C  0.74191826  0.94491140  0.50983993     0.01600
F1060       F  0.71120309  0.89008411  0.55741498    -0.12800
F1061       F  0.62307399  0.98048658  0.46067757    -0.13300
C1062       C  0.75665089  0.97752557  0.52035901     0.16500
C1063       C  0.79221147  0.98187077  0.51784277     0.25900
C1064       C  0.81401167  0.95343953  0.50633210    -0.40400
C1065       C  0.79957827  0.92041078  0.50002670     0.32900
C1066       C  0.76398952  0.91640648  0.49999658     0.14600
F1067       F  0.73675599  0.00524606  0.53368219    -0.12700
F1068       F  0.81969659  0.89179014  0.49235278    -0.13300
F1069       F  0.80513065  0.01400571  0.52662085    -0.15500
F1070       F  0.75114556  0.88467381  0.48771276    -0.14100
F1071       F  0.69251797  0.98980105  0.46037155    -0.14100
F1072       F  0.64349563  0.87615175  0.54446567    -0.15500
C1073       C  0.43510106  0.71841389  0.62322229     0.14500
C1074       C  0.45978830  0.69686700  0.64701569     0.01500
C1075       C  0.48726349  0.70615429  0.33568917     0.16500
C1076       C  0.49216648  0.74165777  0.33906975     0.25900
C1077       C  0.46797691  0.76905320  0.65088983    -0.40400
C1078       C  0.43908879  0.75435566  0.62547345     0.32900
C1079       C  0.45408987  0.65928863  0.64932708     0.01600
F1080       F  0.51061743  0.68543662  0.35940853    -0.12800
F1081       F  0.41468939  0.77484594  0.60349397    -0.13300
C1082       C  0.47917329  0.63487171  0.63413702     0.16500
C1083       C  0.47376115  0.59950308  0.63759588     0.25900
C1084       C  0.44304401  0.58806666  0.65565343    -0.40400
C1085       C  0.41440857  0.60800034  0.32788097     0.32900
C1086       C  0.41965136  0.64312164  0.32281265     0.14600
F1087       F  0.50863470  0.64524121  0.61520241    -0.12700
F1088       F  0.38307692  0.59770511  0.34076154    -0.13300
F1089       F  0.49811055  0.57640851  0.62225195    -0.15500
F1090       F  0.39367612  0.66589502  0.33298978    -0.14100
F1091       F  0.40721522  0.70459762  0.59785063    -0.14100
F1092       F  0.52165844  0.75384341  0.36164069    -0.15500
C1093       C  0.76108584  0.92174083  0.73231790     0.14500
C1094       C  0.75218275  0.88706975  0.72117583     0.01500
C1095       C  0.78132942  0.85700274  0.37485488     0.16500
C1096       C  0.81629559  0.86632488  0.37919223     0.25900
C1097       C  0.82546357  0.90135967  0.38303282    -0.40400
C1098       C  0.79554624  0.93163108  0.73346824     0.32900
C1099       C  0.71555118  0.87764695  0.71032646     0.01600
F1100       F  0.77349890  0.82316619  0.36675023    -0.12800
F1101       F  0.80322107  0.96558167  0.74075670    -0.13300
C1102       C  0.69513913  0.89632892  0.67631840     0.16500
C1103       C  0.66089118  0.88757627  0.66484949     0.25900
C1104       C  0.64626260  0.85926200  0.34875298    -0.40400
C1105       C  0.66684263  0.84020937  0.38224683     0.32900
C1106       C  0.70208355  0.84747256  0.39129108     0.14600
F1107       F  0.70836522  0.92318809  0.65391051    -0.12700
F1108       F  0.65263559  0.81496261  0.40679612    -0.13300
F1109       F  0.64111982  0.90854491  0.63624696    -0.15500
F1110       F  0.72064689  0.82972521  0.42562682    -0.14100
F1111       F  0.73630051  0.94620923  0.74076355    -0.14100
F1112       F  0.84106135  0.84120985  0.37573495    -0.15500
C1113       C  0.91291990  0.22750428  0.50391028     0.14500
C1114       C  0.94505664  0.21087420  0.49804741     0.01500
C1115       C  0.97405722  0.23085338  0.49000611     0.16500
C1116       C  0.97091696  0.26694842  0.48984322     0.25900
C1117       C  0.93866212  0.28291347  0.49569770    -0.40400
C1118       C  0.90954944  0.26284662  0.50001621     0.32900
C1119       C  0.94726412  0.17278225  0.49905059     0.01600
F1120       F  0.00506492  0.21552466  0.48158490    -0.12800
F1121       F  0.87766331  0.27778869  0.50028072    -0.13300
C1122       C  0.92215939  0.15282561  0.47239782     0.16500
C1123       C  0.92156161  0.11727271  0.47632931     0.25900
C1124       C  0.94692329  0.10054752  0.50571906    -0.40400
C1125       C  0.97253974  0.12031201  0.53186551     0.32900
C1126       C  0.97256220  0.15619951  0.52880868     0.14600
F1127       F  0.89821760  0.16779149  0.44182791    -0.12700
F1128       F  0.99703025  0.10506991  0.56141958    -0.13300
F1129       F  0.89656100  0.09922521  0.45014367    -0.15500
F1130       F  0.99648795  0.17474840  0.55636537    -0.14100
F1131       F  0.88472226  0.20966292  0.51441456    -0.14100
F1132       F  0.99893666  0.28624378  0.48340745    -0.15500
C1133       C  0.62482262  0.36776897  0.51992413     0.14500
C1134       C  0.64723594  0.38669074  0.49332812     0.01500
C1135       C  0.63518640  0.41743880  0.47250605     0.16500
C1136       C  0.60177384  0.42954444  0.47943745     0.25900
C1137       C  0.57910579  0.41017452  0.50499349    -0.40400
C1138       C  0.59079614  0.37901969  0.52476835     0.32900
C1139       C  0.68343000  0.37506864  0.48880400     0.01600
F1140       F  0.65554832  0.43555854  0.44466612    -0.12800
F1141       F  0.56897175  0.35866844  0.54695483    -0.13300
C1142       C  0.69163399  0.34064296  0.47389614     0.16500
C1143       C  0.72613786  0.32960088  0.47248389     0.25900
C1144       C  0.75248983  0.35301740  0.48486022    -0.40400
C1145       C  0.74427106  0.38785095  0.49578157     0.26900
C1146       C  0.71017762  0.39860507  0.49926087     0.14600
F1147       F  0.66630800  0.31810209  0.45945005    -0.12700
F1148       F  0.76955999  0.41150870  0.50280188    -0.13300
F1149       F  0.73389415  0.29640368  0.45863960    -0.15500
F1150       F  0.70346930  0.43194236  0.51373561    -0.14100
F1151       F  0.63585323  0.33837843  0.54135535    -0.14100
F1152       F  0.59154498  0.46017774  0.46080414    -0.15500
C1153       C  0.91693818  0.20200302  0.31235467     0.14500
C1154       C  0.89474872  0.17805281  0.33058553     0.01500
C1155       C  0.85890346  0.19330239  0.68631720     0.16500
C1156       C  0.84967639  0.22817012  0.68173029     0.25900
C1157       C  0.87574611  0.24897938  0.32779948    -0.40400
C1158       C  0.90737000  0.23694562  0.31043172     0.32900
C1159       C  0.90465355  0.14054100  0.33128970     0.01600
F1160       F  0.83854369  0.17290892  0.71096429    -0.12800
F1161       F  0.92949680  0.25937534  0.29292347    -0.13300
C1162       C  0.93626490  0.12951618  0.35389962     0.16500
C1163       C  0.94490335  0.09420390  0.35559026     0.25900
C1164       C  0.92224776  0.06901777  0.33444744    -0.40400
C1165       C  0.88671214  0.08254681  0.64730527     0.32900
C1166       C  0.87707326  0.11745357  0.64715952     0.14600
F1167       F  0.95841065  0.15290435  0.37587758    -0.12700
F1168       F  0.86570136  0.05926237  0.62261364    -0.13300
F1169       F  0.97503675  0.08468589  0.37924824    -0.15500
F1170       F  0.84683329  0.12675962  0.62355761    -0.14100
F1171       F  0.94799292  0.19161579  0.29630157    -0.14100
F1172       F  0.82077007  0.24098487  0.70229342    -0.15500
C1173       C  0.61115498  0.39483891  0.64849312     0.14500
C1174       C  0.63354812  0.42302105  0.65729645     0.01500
C1175       C  0.62059361  0.45499336  0.34331999     0.16500
C1176       C  0.58460666  0.45907295  0.34686454     0.25900
C1177       C  0.56005697  0.43182178  0.66268056    -0.40400
C1178       C  0.57505433  0.39918680  0.65104106     0.32900
C1179       C  0.67240479  0.41858316  0.65581403     0.01600
F1180       F  0.64117822  0.48225156  0.35599004    -0.12800
F1181       F  0.55478802  0.37111805  0.64315613    -0.13300
C1182       C  0.69207874  0.44038391  0.62871088     0.16500
C1183       C  0.72852752  0.43767239  0.63017127     0.25900
C1184       C  0.74647989  0.41332660  0.65914692    -0.40400
C1185       C  0.72805998  0.38929719  0.35006759     0.32900
C1186       C  0.69205859  0.39303398  0.35144697     0.14600
F1187       F  0.67594230  0.46417491  0.60020771    -0.12700
F1188       F  0.74398429  0.36341531  0.37443652    -0.13300
F1189       F  0.74635173  0.45941675  0.60401456    -0.15500
F1190       F  0.67491206  0.37188041  0.37924978    -0.14100
F1191       F  0.62412959  0.36292267  0.63681109    -0.14100
F1192       F  0.57166960  0.49047347  0.36144635    -0.15500
C1193       C  0.86990501  0.37021787  0.94369240     0.31900
C1194       C  0.86776974  0.37507618  0.71576660     0.31900
C1195       C  0.90221054  0.38446348  0.97344612    -0.04300
C1196       C  0.84048869  0.39145995  0.96936275    -0.05100
C1197       C  0.86700707  0.33484828  0.96899558    -0.05000
C1198       C  0.90012853  0.38859830  0.69189071    -0.04300
C1199       C  0.83837260  0.39704174  0.68968322    -0.05100
C1200       C  0.86301615  0.34059557  0.68570253    -0.05000
C1201       C  0.93148418  0.40220606  0.70877173    -0.30400
N1202       N  0.94906052  0.41172961  0.66989458     0.16100
C1203       C  0.93308844  0.39805843  0.96162061    -0.30400
H1204       H  0.94075730  0.40176538  0.92495448     0.18100
C1205       C  0.80482035  0.40505491  0.70231992    -0.29300
N1206       N  0.78739335  0.40779508  0.99286072     0.14900
C1207       C  0.80720918  0.40166079  0.95372655    -0.29300
C1208       C  0.86193112  0.30671044  0.69777218    -0.29600
N1209       N  0.86291690  0.28631556  0.65635486     0.15400
H1210       H  0.86304290  0.29724470  0.73435628     0.18000
C1211       C  0.86840570  0.30008356  0.95433242    -0.29600
H1212       H  0.87017579  0.28985763  0.91742503     0.18000
H1213       H  0.79723160  0.40146013  0.91625614     0.18000
H1214       H  0.93991285  0.40639021  0.74685091     0.18100
H1215       H  0.79549773  0.40424797  0.73868844     0.18000
C1216       C  0.86957872  0.37320879  0.77726805     0.31900
C1217       C  0.87080660  0.37123845  0.88198768     0.31900
C1218       C  0.86703050  0.40819153  0.80672205    -0.04300
C1219       C  0.84143599  0.35259209  0.80002380    -0.05100
C1220       C  0.90235204  0.35676217  0.80341039    -0.05000
C1221       C  0.86794638  0.40745856  0.85913728    -0.04300
C1222       C  0.84209818  0.35153972  0.85170423    -0.05100
C1223       C  0.90299353  0.35598934  0.85620461    -0.05000
C1224       C  0.88465796  0.43736543  0.87587760    -0.30400
N1225       N  0.89443051  0.45526158  0.83763135     0.16100
C1226       C  0.88252839  0.43834463  0.79592623    -0.30400
H1227       H  0.88941417  0.44444624  0.75979593     0.18100
C1228       C  0.81026545  0.34070381  0.86302653    -0.29300
N1229       N  0.78994168  0.33692981  0.82127964     0.14900
C1230       C  0.80925901  0.34235622  0.78281237    -0.29300
C1231       C  0.92107635  0.32632809  0.86795489    -0.29600
N1232       N  0.92975853  0.30830707  0.82678752     0.15400
H1233       H  0.92206856  0.31536553  0.90350062     0.18000
C1234       C  0.91979527  0.32706546  0.78798568    -0.29600
H1235       H  0.91971950  0.31676926  0.75063352     0.18000
H1236       H  0.79893599  0.34421624  0.74560644     0.18000
H1237       H  0.89331938  0.44288524  0.91347402     0.18100
H1238       H  0.80061270  0.34147328  0.89934866     0.18000
C1239       C  0.52385181  0.87350380  0.72042639     0.31900
C1240       C  0.52454468  0.87673437  0.94707638     0.31900
C1241       C  0.52163523  0.90925727  0.69868029    -0.04300
C1242       C  0.55562680  0.85765176  0.69581857    -0.05100
C1243       C  0.49462098  0.85452957  0.68954705    -0.05000
C1244       C  0.51877536  0.91184589  0.97567153    -0.04300
C1245       C  0.55752916  0.86323411  0.97532643    -0.05100
C1246       C  0.49680923  0.85475840  0.96890814    -0.05000
C1247       C  0.50245074  0.94224014  0.96244979    -0.30400
N1248       N  0.48974980  0.95469782  0.67761880     0.16100
C1249       C  0.50234584  0.93706553  0.71570359    -0.30400
H1250       H  0.49378411  0.94126254  0.75229115     0.18100
C1251       C  0.59152329  0.86075589  0.96405337    -0.29300
N1252       N  0.61033268  0.85226275  0.67716211     0.14900
C1253       C  0.58881096  0.85264299  0.71423321    -0.29300
C1254       C  0.48273235  0.82410572  0.95049460    -0.29600
N1255       N  0.47654851  0.80415086  0.98792674     0.15400
H1256       H  0.48148506  0.81492698  0.91254883     0.18000
C1257       C  0.48017392  0.82341838  0.69844756    -0.29600
H1258       H  0.48037677  0.81212717  0.73377098     0.18000
H1259       H  0.59727392  0.85405801  0.75259454     0.18000
H1260       H  0.49552304  0.94876338  0.92525112     0.18100
H1261       H  0.60104172  0.86228053  0.92819136     0.18000
C1262       C  0.52476174  0.87614230  0.88610036     0.31900
C1263       C  0.52402186  0.87443329  0.78149008     0.31900
C1264       C  0.48950822  0.88198123  0.85775687    -0.04300
C1265       C  0.54704875  0.90318660  0.86233625    -0.05100
C1266       C  0.53737334  0.84218971  0.85919406    -0.05000
C1267       C  0.48891280  0.88108119  0.80589787    -0.04300
C1268       C  0.54705341  0.90205633  0.81009855    -0.05100
C1269       C  0.53708517  0.84175558  0.80742649    -0.05000
C1270       C  0.45771733  0.89628062  0.79058154    -0.30400
N1271       N  0.44033838  0.90758192  0.83038000     0.16100
C1272       C  0.45913289  0.89793408  0.87110947    -0.30400
H1273       H  0.45305605  0.90508333  0.90826224     0.18100
C1274       C  0.57840815  0.91550580  0.79891297    -0.29300
N1275       N  0.59707398  0.92461947  0.84072845     0.14900
C1276       C  0.57791302  0.91785012  0.87898342    -0.29300
C1277       C  0.54142211  0.80803965  0.79133131    -0.29600
N1278       N  0.54321342  0.78748416  0.83001062     0.15400
H1279       H  0.53950402  0.79883211  0.75373212     0.18000
C1280       C  0.54150579  0.80799902  0.87158220    -0.29600
H1281       H  0.53959985  0.79830568  0.90767635     0.18000
H1282       H  0.58742756  0.91973521  0.91667470     0.18000
H1283       H  0.45010136  0.90195271  0.75323047     0.18100
H1284       H  0.58881945  0.91456008  0.76307649     0.18000
Zn1285     Zn  0.91699462  0.94394360  0.96733624     1.49700
Zn1286     Zn  0.98091005  0.97388590  0.67734108     1.49400
Zn1287     Zn  0.93469607  0.90307390  0.71688058     1.49100
Zn1288     Zn  0.99143497  0.88657822  0.97051941     1.49500
O1289       O  0.94554644  0.93297986  0.66615112    -1.82300
O1290       O  0.91522601  0.99952170  0.97507015    -0.72900
O1291       O  0.00119881  0.96502932  0.74074017    -0.72700
O1292       O  0.88319854  0.90121949  0.73145231    -0.72200
O1293       O  0.95913677  0.02422483  0.67353716    -0.72900
O1294       O  0.87240958  0.92737479  0.98961099    -0.72500
O1295       O  0.97196147  0.92137031  0.76036057    -0.73100
O1296       O  0.98951873  0.83860397  0.99136853    -0.72500
O1297       O  0.02642477  0.96803026  0.64667017    -0.73200
O1298       O  0.94425022  0.85473151  0.70140686    -0.72600
O1299       O  0.04301161  0.90132748  0.97582416    -0.73100
O1300       O  0.96547069  0.88218104  0.90641515    -0.73000
O1301       O  0.92155156  0.91822779  0.90231457    -0.72800
C1302       C  0.92736585  0.03450325  0.67135891     0.79000
C1303       C  0.97349403  0.95302720  0.75245399     0.79500
C1304       C  0.85661049  0.91777406  0.71522376     0.78500
C1305       C  0.95420473  0.83684051  0.66506487     0.78800
C1306       C  0.04014355  0.94114554  0.62703570     0.80000
C1307       C  0.95368064  0.91268045  0.90459149     0.79000
Zn1308     Zn  0.97567167  0.00134132  0.81815962     1.49700
Zn1309     Zn  0.92478989  0.98273926  0.88751725     1.49400
Zn1310     Zn  0.91770271  0.92912283  0.80202103     1.49100
Zn1311     Zn  0.99654971  0.92829683  0.84303803     1.49500
O1312       O  0.95183234  0.95918912  0.83808764    -1.82300
O1313       O  0.97132385  0.04326434  0.85969498    -0.72900
O1314       O  0.87472747  0.96575227  0.89504701    -0.72700
O1315       O  0.91317412  0.96086191  0.74577217    -0.72200
O1316       O  0.91785605  0.03398472  0.87561490    -0.72900
O1317       O  0.94522039  0.00660701  0.75851611    -0.72500
O1318       O  0.87035310  0.93039638  0.82931379    -0.73100
O1319       O  0.99068308  0.87664035  0.82351756    -0.72500
O1320       O  0.96547269  0.97077366  0.93104498    -0.73200
O1321       O  0.93474583  0.87590700  0.79970701    -0.72600
O1322       O  0.00809100  0.93660977  0.91144169    -0.73100
O1323       O  0.04045426  0.94379316  0.81827400    -0.73000
O1324       O  0.02782914  0.99925477  0.81294645    -0.72800
C1325       C  0.94175035  0.05468965  0.86887146     0.79000
C1326       C  0.85676858  0.94566236  0.86583635     0.79500
C1327       C  0.94238111  0.97467533  0.74702368     0.78500
C1328       C  0.96361955  0.85995993  0.80928756     0.78800
C1329       C  0.97697892  0.94072744  0.92021868     0.80000
C1330       C  0.04978016  0.97446537  0.81311079     0.79000
C1331       C  0.00394497  0.51280826  0.95991475     0.31900
C1332       C  0.00200346  0.51661441  0.73195720     0.31900
C1333       C  0.00803484  0.47712340  0.98402844    -0.04300
C1334       C  0.03138324  0.53425973  0.98958876    -0.05100
C1335       C  0.97074070  0.52652687  0.98396114    -0.05000
C1336       C  0.00516336  0.48128071  0.70340025    -0.04300
C1337       C  0.03054846  0.53707103  0.70983514    -0.05100
C1338       C  0.96952645  0.53239849  0.70432307    -0.05000
C1339       C  0.98915182  0.45141489  0.71428919    -0.30400
N1340       N  0.97753198  0.43427581  0.67261644     0.16100
C1341       C  0.99114462  0.44717809  0.96783738    -0.30400
H1342       H  0.98259431  0.44142463  0.93021743     0.18100
C1343       C  0.06269955  0.54674043  0.72811247    -0.29300
N1344       N  0.08351866  0.54917894  0.01925104     0.14900
C1345       C  0.06336597  0.54437157  0.97774991    -0.29300
C1346       C  0.95105228  0.56169612  0.71832274    -0.29600
N1347       N  0.94163445  0.58003434  0.67877931     0.15400
H1348       H  0.95002429  0.57215870  0.75546683     0.18000
C1349       C  0.94994614  0.55367094  0.96964045    -0.29600
H1350       H  0.94947701  0.56417313  0.93375939     0.18000
H1351       H  0.07308989  0.54283948  0.94147874     0.18000
H1352       H  0.98168276  0.44575130  0.75030444     0.18100
H1353       H  0.07240298  0.54499809  0.76569218     0.18000
C1354       C  0.00322408  0.51542070  0.79347273     0.31900
C1355       C  0.00500253  0.51420093  0.89874311     0.31900
C1356       C  0.97118859  0.50161049  0.81754956    -0.04300
C1357       C  0.03273199  0.49372361  0.81932543    -0.05100
C1358       C  0.00749806  0.55017545  0.82345511    -0.05000
C1359       C  0.97232301  0.50091143  0.86925762    -0.04300
C1360       C  0.03402731  0.49321206  0.87160725    -0.05100
C1361       C  0.00790470  0.55011068  0.87542350    -0.05000
C1362       C  0.94186237  0.48693677  0.88160236    -0.30400
N1363       N  0.92259424  0.47817248  0.84006876     0.16100
C1364       C  0.93984322  0.48787567  0.80099268    -0.30400
H1365       H  0.93123990  0.48368975  0.76298115     0.18100
C1366       C  0.06799620  0.48366667  0.88540101    -0.29300
N1367       N  0.08665511  0.47805455  0.84491531     0.14900
C1368       C  0.06529869  0.48383806  0.80506485    -0.29300
C1369       C  0.00622368  0.58472283  0.89155343    -0.29600
N1370       N  0.00485710  0.60484168  0.85199863     0.15400
H1371       H  0.00385728  0.59445955  0.92886725     0.18000
C1372       C  0.00647900  0.58402929  0.81108728    -0.29600
H1373       H  0.00496487  0.59306635  0.77459999     0.18000
H1374       H  0.07381907  0.48409852  0.76834600     0.18000
H1375       H  0.93507412  0.48194167  0.91825542     0.18100
H1376       H  0.07917605  0.48387662  0.92250043     0.18000
C1377       C  0.37852459  0.01633784  0.72144454     0.31900
C1378       C  0.38298804  0.01696373  0.94541980     0.31900
C1379       C  0.41129527  0.00256137  0.69757441    -0.04300
C1380       C  0.34967414  0.99416420  0.69294104    -0.05100
C1381       C  0.37297011  0.05008421  0.69471986    -0.05000
C1382       C  0.41803634  0.01380697  0.97481922    -0.04300
C1383       C  0.36237047  0.98778488  0.96617290    -0.05100
C1384       C  0.36702456  0.04890857  0.97149988    -0.05000
C1385       C  0.44829467  0.99728697  0.96217019    -0.30400
N1386       N  0.45778463  0.97291894  0.67721625     0.16100
C1387       C  0.44335490  0.99046925  0.71497985    -0.30400
H1388       H  0.45411549  0.99215690  0.75230879     0.18100
C1389       C  0.33322187  0.97088445  0.94690475    -0.29300
N1390       N  0.29544992  0.98287032  0.66533979     0.14900
C1391       C  0.31745897  0.98397447  0.70560419    -0.29300
C1392       C  0.36275917  0.08255003  0.95821635    -0.29600
N1393       N  0.35883689  0.10302765  0.99885708     0.15400
H1394       H  0.36636662  0.09209603  0.92243966     0.18000
C1395       C  0.37585831  0.08356709  0.71093436    -0.29600
H1396       H  0.37096593  0.09368933  0.74709775     0.18000
H1397       H  0.31026687  0.97949564  0.74188285     0.18000
H1398       H  0.45468224  0.99011130  0.92513709     0.18100
H1399       H  0.32298974  0.97142538  0.90936698     0.18000
C1400       C  0.38353076  0.01763845  0.88576366     0.31900
C1401       C  0.38157969  0.01817026  0.78219983     0.31900
C1402       C  0.38808884  0.98251465  0.85759392    -0.04300
C1403       C  0.35047300  0.03171021  0.85950225    -0.05100
C1404       C  0.41123381  0.03966413  0.86362848    -0.05000
C1405       C  0.38690388  0.98244906  0.80596174    -0.04300
C1406       C  0.34965603  0.03267087  0.80811503    -0.05100
C1407       C  0.41074202  0.03999237  0.81141649    -0.05000
C1408       C  0.40266874  0.95154511  0.79070921    -0.30400
N1409       N  0.41411510  0.93380051  0.83037512     0.16100
C1410       C  0.40458674  0.95229795  0.87101252    -0.30400
H1411       H  0.41232012  0.94628422  0.90815049     0.18100
C1412       C  0.31607889  0.04011205  0.79309325    -0.29300
N1413       N  0.29642922  0.04112348  0.83254153     0.14900
C1414       C  0.31716387  0.03682225  0.87316542    -0.29300
C1415       C  0.42611178  0.07107326  0.80212545    -0.29600
N1416       N  0.43452897  0.08954047  0.84462632     0.15400
H1417       H  0.42905579  0.08083842  0.76655294     0.18000
C1418       C  0.42612512  0.07023311  0.88195985    -0.29600
H1419       H  0.42662135  0.07976273  0.91977827     0.18000
H1420       H  0.30789221  0.03297571  0.90899832     0.18000
H1421       H  0.40818069  0.94404125  0.75349563     0.18100
H1422       H  0.30573679  0.04071952  0.75570004     0.18000
Zn1423     Zn  0.39588613  0.48991836  0.97647625     1.49700
Zn1424     Zn  0.45871335  0.48201029  0.69793520     1.49400
Zn1425     Zn  0.38135743  0.42852786  0.68184122     1.49100
Zn1426     Zn  0.45094402  0.41294495  0.96463441     1.49500
O1427       O  0.42858220  0.45284120  0.99678262    -1.82300
O1428       O  0.41275867  0.53871624  0.97839465    -0.72900
O1429       O  0.42964255  0.48080431  0.75497791    -0.72700
O1430       O  0.33499406  0.44271522  0.65287094    -0.72200
O1431       O  0.45980034  0.53173512  0.67888979    -0.72900
O1432       O  0.35337422  0.49539877  0.01220693    -0.72500
O1433       O  0.38331699  0.44990528  0.74719116    -0.73100
O1434       O  0.43739127  0.36581970  0.98553492    -0.72500
O1435       O  0.50907222  0.46174403  0.69097852    -0.73200
O1436       O  0.38277243  0.37621221  0.68079629    -0.72600
O1437       O  0.50530580  0.41653361  0.97269465    -0.73100
O1438       O  0.42139893  0.42138609  0.90453269    -0.73000
O1439       O  0.38594369  0.46564527  0.91334009    -0.72800
C1440       C  0.44172371  0.55032829  0.99459099     0.79000
C1441       C  0.41563081  0.45167419  0.75359384     0.79500
C1442       C  0.32988631  0.47453070  0.99866448     0.78500
C1443       C  0.40884122  0.35586771  0.00016775     0.78800
C1444       C  0.52538378  0.43656768  0.99953765     0.80000
C1445       C  0.41595533  0.45370357  0.90607295     0.79000
Zn1446     Zn  0.48598213  0.45830366  0.78183568     1.49700
Zn1447     Zn  0.48198085  0.42432672  0.88396312     1.49400
Zn1448     Zn  0.42394701  0.49163297  0.84009328     1.49100
Zn1449     Zn  0.41406486  0.40909939  0.81911319     1.49500
O1450       O  0.45357579  0.44527642  0.83149290    -1.82300
O1451       O  0.53381186  0.44106803  0.79585459    -0.72900
O1452       O  0.47478024  0.46543190  0.93011563    -0.72700
O1453       O  0.44100275  0.53297701  0.80865027    -0.72200
O1454       O  0.53126517  0.42117449  0.86994811    -0.72900
O1455       O  0.48951926  0.51322153  0.77724017    -0.72500
O1456       O  0.44099024  0.50790393  0.90656180    -0.73100
O1457       O  0.36256649  0.42891108  0.82527068    -0.72500
O1458       O  0.47136338  0.37128762  0.89213919    -0.73200
O1459       O  0.36873001  0.48626343  0.83103828    -0.72600
O1460       O  0.42113431  0.36351329  0.85091941    -0.73100
O1461       O  0.42579026  0.39225629  0.75377986    -0.73000
O1462       O  0.46716384  0.42369530  0.73027504    -0.72800
C1463       C  0.54786015  0.42660063  0.83263518     0.79000
C1464       C  0.44503003  0.47703447  0.91745957     0.79500
C1465       C  0.46979078  0.53857513  0.79088220     0.78500
C1466       C  0.34914916  0.45961317  0.82808330     0.78800
C1467       C  0.44705285  0.35133720  0.87527298     0.80000
C1468       C  0.43631658  0.42081844  0.74169666     0.79000
C1469       C  0.41874033  0.25802644  0.87983678     0.14500
C1470       C  0.44940647  0.23882406  0.87196580     0.01500
C1471       C  0.48028909  0.25735165  0.87034845     0.16500
C1472       C  0.48010275  0.29389308  0.87477139     0.25900
C1473       C  0.44899767  0.31290186  0.88029714    -0.40400
C1474       C  0.41844140  0.29427650  0.88299520     0.32900
C1475       C  0.44805116  0.19998769  0.86318078     0.01600
F1476       F  0.51041807  0.24030172  0.86179633    -0.12800
F1477       F  0.38797789  0.31127258  0.88948853    -0.13300
C1478       C  0.42227211  0.18557896  0.83054793     0.16500
C1479       C  0.41807658  0.14980127  0.82488325     0.25900
C1480       C  0.44053961  0.12659792  0.84934821    -0.40400
C1481       C  0.46685912  0.14065019  0.88151938     0.32900
C1482       C  0.47057115  0.17688542  0.88847240     0.14600
F1483       F  0.40040019  0.20628713  0.80421857    -0.12700
F1484       F  0.48859661  0.11926474  0.90685837    -0.13300
F1485       F  0.39026290  0.13812287  0.79777624    -0.15500
F1486       F  0.49528749  0.18924318  0.92139809    -0.14100
F1487       F  0.38875343  0.24160417  0.88541509    -0.14100
F1488       F  0.51001825  0.31068686  0.87022352    -0.15500
C1489       C  0.43220991  0.26145536  0.66884090     0.14500
C1490       C  0.38926621  0.24741973  0.00708486     0.01500
C1491       C  0.36389751  0.27208166  0.01972734     0.16500
C1492       C  0.37059214  0.30729100  0.01922646     0.25900
C1493       C  0.40311958  0.31866759  0.00671212    -0.40400
C1494       C  0.43490859  0.29704499  0.66755940     0.32900
C1495       C  0.39874988  0.20922676  0.68286538     0.01600
F1496       F  0.33250811  0.26208970  0.03278196    -0.12800
F1497       F  0.46450713  0.30973093  0.65191585    -0.13300
C1498       C  0.42514688  0.18780283  0.70281172     0.16500
C1499       C  0.42197014  0.15203591  0.69893220     0.25900
C1500       C  0.36582901  0.13927277  0.00121548    -0.40400
C1501       C  0.34377595  0.16241471  0.97642550     0.32900
C1502       C  0.35155883  0.19758875  0.97743820     0.14600
F1503       F  0.45348905  0.20151529  0.72719845    -0.12700
F1504       F  0.31511475  0.15072480  0.95064628    -0.13300
F1505       F  0.44761123  0.13154028  0.71787269    -0.15500
F1506       F  0.33054267  0.21922241  0.95135540    -0.14100
F1507       F  0.45810780  0.24108983  0.65144862    -0.14100
F1508       F  0.34492127  0.33010267  0.03063034    -0.15500
C1509       C  0.25201256  0.44481598  0.80260871     0.14500
C1510       C  0.23666029  0.47049996  0.83323259     0.01500
C1511       C  0.25901043  0.49384481  0.85997922     0.16500
C1512       C  0.29522923  0.49077660  0.85754580     0.25900
C1513       C  0.31045665  0.46415763  0.82858007    -0.40400
C1514       C  0.28822381  0.44148798  0.80072309     0.32900
C1515       C  0.19771558  0.47259079  0.83734024     0.01600
F1516       F  0.24597769  0.51911694  0.89006019    -0.12800
F1517       F  0.30154432  0.41656923  0.77029237    -0.13300
C1518       C  0.17859837  0.44285907  0.84554728     0.16500
C1519       C  0.14234221  0.44464432  0.84869882     0.25900
C1520       C  0.12410626  0.47614512  0.84412782    -0.40400
C1521       C  0.14293588  0.50578774  0.83625227     0.32900
C1522       C  0.17908325  0.50415890  0.83315465     0.14600
F1523       F  0.19511663  0.41204700  0.85180041    -0.12700
F1524       F  0.12609044  0.53653259  0.83125085    -0.13300
F1525       F  0.12492129  0.41543744  0.85551446    -0.15500
F1526       F  0.19560589  0.53359546  0.82494012    -0.14100
F1527       F  0.23187773  0.42333406  0.77320502    -0.14100
F1528       F  0.31548665  0.51321413  0.88517232    -0.15500
C1529       C  0.23287340  0.47860235  0.97870045     0.14500
C1530       C  0.22472504  0.50841121  0.00749019     0.01500
C1531       C  0.24947345  0.51697197  0.72241559     0.16500
C1532       C  0.28328998  0.50615158  0.71575276     0.25900
C1533       C  0.29357016  0.48535158  0.00248733    -0.40400
C1534       C  0.26702256  0.46702493  0.97640865     0.32900
C1535       C  0.18703950  0.51718313  0.69528382     0.01600
F1536       F  0.24304683  0.53981169  0.76006218    -0.12800
F1537       F  0.27409644  0.43859882  0.94744359    -0.13300
C1538       C  0.16035707  0.49341385  0.69604203     0.16500
C1539       C  0.12626548  0.50489427  0.69369126     0.25900
C1540       C  0.11942736  0.54047240  0.01971940    -0.40400
C1541       C  0.14346177  0.56432188  0.00673193     0.32900
C1542       C  0.17795459  0.55401110  0.00227351     0.14600
F1543       F  0.16732557  0.45900086  0.69798146    -0.12700
F1544       F  0.13320695  0.59705691  0.99693589    -0.13300
F1545       F  0.10074472  0.48135927  0.68993222    -0.15500
F1546       F  0.20071570  0.57698015  0.98755854    -0.14100
F1547       F  0.20781006  0.46114401  0.95184497    -0.14100
F1548       F  0.30884999  0.51926400  0.74674202    -0.15500
C1549       C  0.13119801  0.02035477  0.78831990     0.14500
C1550       C  0.15625774  0.99936736  0.81196336     0.01500
C1551       C  0.14637100  0.96822553  0.83089221     0.16500
C1552       C  0.11182420  0.95916240  0.82856848     0.25900
C1553       C  0.08643724  0.98137049  0.80800623    -0.40400
C1554       C  0.09649637  0.01157284  0.78665051     0.32900
C1555       C  0.19245643  0.01033909  0.81811022     0.01600
F1556       F  0.16983719  0.94745594  0.85437362    -0.12800
F1557       F  0.07276237  0.03283947  0.76468518    -0.13300
C1558       C  0.20063716  0.04371005  0.83770123     0.16500
C1559       C  0.23495056  0.05422056  0.84206976     0.25900
C1560       C  0.26127359  0.03095974  0.82929567    -0.40400
C1561       C  0.25331127  0.99682898  0.81422666     0.32900
C1562       C  0.21920795  0.98706349  0.80616099     0.14600
F1563       F  0.17553596  0.06578368  0.85343802    -0.12700
F1564       F  0.27869305  0.97267560  0.80884848    -0.13300
F1565       F  0.24263261  0.08670448  0.85939213    -0.15500
F1566       F  0.21242266  0.95500229  0.78612609    -0.14100
F1567       F  0.14029734  0.04955545  0.76720097    -0.14100
F1568       F  0.10313405  0.92970097  0.84940775    -0.15500
C1569       C  0.01586495  0.70103013  0.85608681     0.14500
C1570       C  0.98392465  0.71247470  0.83470289     0.01500
C1571       C  0.95836459  0.68778356  0.82232915     0.16500
C1572       C  0.96491964  0.65261996  0.82966212     0.25900
C1573       C  0.99678088  0.64131344  0.85088481    -0.40400
C1574       C  0.02199419  0.66584394  0.86464623     0.32900
C1575       C  0.97730595  0.74989270  0.82496838     0.01600
F1576       F  0.92738030  0.69751464  0.80143684    -0.12800
F1577       F  0.05299921  0.65544314  0.88477421    -0.13300
C1578       C  0.99953071  0.76791681  0.79665139     0.16500
C1579       C  0.99407953  0.80332277  0.78922768     0.25900
C1580       C  0.96584410  0.82146208  0.80902970    -0.40400
C1581       C  0.94300649  0.80320933  0.83596113     0.32900
C1582       C  0.94879824  0.76796122  0.84416280     0.14600
F1583       F  0.02672376  0.75124513  0.77632883    -0.12700
F1584       F  0.91638915  0.82011481  0.85737831    -0.13300
F1585       F  0.01662893  0.82002067  0.76293441    -0.15500
F1586       F  0.92746145  0.75189834  0.87306127    -0.14100
F1587       F  0.04100814  0.72400146  0.86939791    -0.14100
F1588       F  0.94035384  0.62932641  0.81503089    -0.15500
C1589       C  0.19911012  0.98764895  0.67372704     0.14500
C1590       C  0.20660345  0.94325391  0.97597420     0.01500
C1591       C  0.22921793  0.91714606  0.95799343     0.16500
C1592       C  0.26517055  0.92201439  0.96073444     0.25900
C1593       C  0.25958484  0.97348399  0.66162688    -0.40400
C1594       C  0.23427520  0.99525906  0.68182917     0.32900
C1595       C  0.16835396  0.93861682  0.97461918     0.01600
F1596       F  0.21654248  0.88727258  0.93688740    -0.12800
F1597       F  0.24358918  0.02471364  0.70753773    -0.13300
C1598       C  0.14576522  0.96492307  0.95755377     0.16500
C1599       C  0.11004362  0.96216285  0.95974319     0.25900
C1600       C  0.07817249  0.94205007  0.62217025    -0.40400
C1601       C  0.10011022  0.91516880  0.63874256     0.32900
C1602       C  0.13605547  0.91990167  0.64505879     0.14600
F1603       F  0.15822018  0.99334821  0.93798828    -0.12700
F1604       F  0.08654415  0.88544399  0.65272360    -0.13300
F1605       F  0.08935646  0.98827759  0.94317410    -0.15500
F1606       F  0.15614837  0.89448182  0.66475049    -0.14100
F1607       F  0.17535191  0.00928411  0.69392414    -0.14100
F1608       F  0.28650229  0.89639262  0.94421256    -0.15500
C1609       C  0.93101087  0.73972127  0.04166967     0.14500
C1610       C  0.95134653  0.71751391  0.01303080     0.01500
C1611       C  0.97183431  0.74093311  0.64585288     0.16500
C1612       C  0.97443482  0.77663747  0.64250331     0.25900
C1613       C  0.95166558  0.79906871  0.66692307    -0.40400
C1614       C  0.93726603  0.77491199  0.04487545     0.32900
C1615       C  0.94686248  0.68007133  0.01282170     0.01600
F1616       F  0.99362011  0.71977110  0.62079845    -0.12800
F1617       F  0.91637497  0.79554034  0.07230908    -0.13300
C1618       C  0.91456968  0.66489863  0.00081853     0.16500
C1619       C  0.91143129  0.62899258  0.00085209     0.25900
C1620       C  0.94156032  0.61702222  0.68089355    -0.40400
C1621       C  0.97290882  0.63418108  0.69072863     0.32900
C1622       C  0.97402648  0.67000284  0.69117490     0.14600
F1623       F  0.88653168  0.68467366  0.98803150    -0.12700
F1624       F  0.00289384  0.61598842  0.69697135    -0.13300
F1625       F  0.88036705  0.61427000  0.98985785    -0.15500
F1626       F  0.00439708  0.68578564  0.70372729    -0.14100
F1627       F  0.90525856  0.72736411  0.06702046    -0.14100
F1628       F  0.99941189  0.78922170  0.61589174    -0.15500
C1629       C  0.48915129  0.70933273  0.80340098     0.14500
C1630       C  0.51365748  0.68214955  0.80775380     0.01500
C1631       C  0.54819018  0.69034340  0.82177852     0.16500
C1632       C  0.55797446  0.72497373  0.83052271     0.25900
C1633       C  0.53342216  0.75182107  0.82544089    -0.40400
C1634       C  0.49895901  0.74368340  0.81228780     0.32900
C1635       C  0.50243152  0.64546032  0.80090150     0.01600
F1636       F  0.57223912  0.66479725  0.82809896    -0.12800
F1637       F  0.47481328  0.76933543  0.80776668    -0.13300
C1638       C  0.51766182  0.62164385  0.76748402     0.16500
C1639       C  0.50694270  0.58697305  0.76275552     0.25900
C1640       C  0.48048898  0.57557880  0.79102672    -0.40400
C1641       C  0.46518151  0.59995102  0.82389962     0.32900
C1642       C  0.47603152  0.63408109  0.82870840     0.14600
F1643       F  0.54276782  0.63199479  0.73920128    -0.12700
F1644       F  0.44050649  0.59060457  0.85369789    -0.13300
F1645       F  0.52240227  0.56474751  0.73059531    -0.15500
F1646       F  0.46131876  0.65589297  0.86220207    -0.14100
F1647       F  0.45566424  0.70265136  0.78982762    -0.14100
F1648       F  0.59133771  0.73237459  0.84366302    -0.15500
C1649       C  0.68724156  0.95922891  0.83932685     0.14500
C1650       C  0.70742756  0.93146411  0.85806594     0.01500
C1651       C  0.69022060  0.90109625  0.86806213     0.16500
C1652       C  0.65443607  0.89861363  0.85968728     0.25900
C1653       C  0.63426734  0.92697973  0.84442953    -0.40400
C1654       C  0.65098830  0.95715783  0.83337481     0.32900
C1655       C  0.74613233  0.93373998  0.86593579     0.01600
F1656       F  0.70771102  0.87396975  0.88774332    -0.12800
F1657       F  0.63221635  0.98454794  0.81681398    -0.13300
C1658       C  0.76181400  0.96340651  0.88873318     0.16500
C1659       C  0.79797206  0.96666324  0.89171270     0.25900
C1660       C  0.81936816  0.94020161  0.87237721    -0.40400
C1661       C  0.80390831  0.90943765  0.85368476     0.32900
C1662       C  0.76797136  0.90633325  0.85014354     0.14600
F1663       F  0.74215847  0.98943139  0.90810233    -0.12700
F1664       F  0.82366137  0.88239483  0.83739108    -0.13300
F1665       F  0.81185226  0.99640341  0.91142089    -0.15500
F1666       F  0.75476603  0.87693198  0.82858129    -0.14100
F1667       F  0.70257451  0.98816773  0.82581748    -0.14100
F1668       F  0.63936527  0.86807051  0.86590298    -0.15500
C1669       C  0.44081302  0.71637614  0.95804565     0.14500
C1670       C  0.46670308  0.69518056  0.97984175     0.01500
C1671       C  0.48945800  0.71166308  0.67023454     0.16500
C1672       C  0.49383061  0.74725024  0.67102774     0.25900
C1673       C  0.47372320  0.76732338  0.98307103    -0.40400
C1674       C  0.44437600  0.75225453  0.95964359     0.32900
C1675       C  0.46093628  0.65783822  0.98405993     0.01600
F1676       F  0.51396812  0.69178834  0.69313513    -0.12800
F1677       F  0.41894122  0.77240799  0.93940520    -0.13300
C1678       C  0.48515851  0.63287923  0.96788729     0.16500
C1679       C  0.47918641  0.59774844  0.97209272     0.25900
C1680       C  0.44862534  0.58712541  0.99137491    -0.40400
C1681       C  0.41823847  0.61239091  0.67137527     0.32900
C1682       C  0.42384026  0.64769366  0.66866242     0.14600
F1683       F  0.51409374  0.64241695  0.94678421    -0.12700
F1684       F  0.38905865  0.60192914  0.69098949    -0.13300
F1685       F  0.50270134  0.57403476  0.95596341    -0.15500
F1686       F  0.40014571  0.67063974  0.68630305    -0.14100
F1687       F  0.41195320  0.70229335  0.93565164    -0.14100
F1688       F  0.52394188  0.76035405  0.69011159    -0.15500
C1689       C  0.76902096  0.92145061  0.03585953     0.14500
C1690       C  0.75659099  0.88803714  0.02336345     0.01500
C1691       C  0.77868279  0.86208257  0.71573254     0.16500
C1692       C  0.81322296  0.87187502  0.71835750     0.25900
C1693       C  0.82179345  0.90685486  0.72546390    -0.40400
C1694       C  0.80431055  0.92792851  0.03635433     0.32900
C1695       C  0.71889638  0.88128946  0.02003727     0.01600
F1696       F  0.77110186  0.82857100  0.70392074    -0.12800
F1697       F  0.81556803  0.96057829  0.04637773    -0.13300
C1698       C  0.69568410  0.90374265  0.99526032     0.16500
C1699       C  0.66047964  0.89695809  0.99132147     0.25900
C1700       C  0.64658293  0.85894688  0.68521109    -0.40400
C1701       C  0.66691980  0.84009030  0.71910512     0.32900
C1702       C  0.70100551  0.84950210  0.73191808     0.14600
F1703       F  0.70697441  0.93196200  0.97388970    -0.12700
F1704       F  0.65346375  0.81288382  0.74039906    -0.13300
F1705       F  0.63852452  0.92037069  0.97061808    -0.15500
F1706       F  0.71947495  0.83148060  0.76604014    -0.14100
F1707       F  0.74720621  0.94774432  0.04877441    -0.14100
F1708       F  0.83799540  0.84758165  0.70900049    -0.15500
C1709       C  0.90056059  0.21846170  0.83887475     0.14500
C1710       C  0.93115068  0.19911652  0.83236877     0.01500
C1711       C  0.96059384  0.21613905  0.81820224     0.16500
C1712       C  0.96033786  0.25218446  0.81573317     0.25900
C1713       C  0.93008181  0.27126156  0.82412926    -0.40400
C1714       C  0.89972021  0.25385858  0.83230744     0.32900
C1715       C  0.93275751  0.16192656  0.84332057     0.01600
F1716       F  0.98969519  0.19795129  0.80743554    -0.12800
F1717       F  0.86926670  0.27148653  0.83460616    -0.13300
C1718       C  0.90652838  0.13923317  0.82531770     0.16500
C1719       C  0.90777472  0.10457989  0.83735501     0.25900
C1720       C  0.93548900  0.09196848  0.86687141    -0.40400
C1721       C  0.96127245  0.11456872  0.88555291     0.32900
C1722       C  0.96007876  0.14910511  0.87369721     0.14600
F1723       F  0.88068965  0.15005920  0.79390801    -0.12700
F1724       F  0.98827394  0.10285002  0.91428810    -0.13300
F1725       F  0.88339315  0.08279663  0.81704664    -0.15500
F1726       F  0.98590061  0.16993208  0.89190934    -0.14100
F1727       F  0.87189401  0.20356283  0.85397806    -0.14100
F1728       F  0.98958280  0.26850085  0.80599577    -0.15500
C1729       C  0.62669570  0.36979479  0.85121212     0.14500
C1730       C  0.65067015  0.38627376  0.82416166     0.01500
C1731       C  0.64051569  0.41648796  0.80007515     0.16500
C1732       C  0.60737160  0.43035163  0.80411857     0.25900
C1733       C  0.58350167  0.41370431  0.83094312    -0.40400
C1734       C  0.59321631  0.38299802  0.85372105     0.32900
C1735       C  0.68649362  0.37281777  0.82262926     0.01600
F1736       F  0.66258670  0.43264414  0.77241439    -0.12800
F1737       F  0.56995507  0.36503467  0.87706300    -0.13300
C1738       C  0.69367481  0.33738670  0.81234622     0.16500
C1739       C  0.72783607  0.32514333  0.81247531     0.25900
C1740       C  0.75482130  0.34833710  0.82072731    -0.40400
C1741       C  0.74768857  0.38370995  0.82863723     0.26900
C1742       C  0.71398307  0.39567164  0.83153995     0.14600
F1743       F  0.66778498  0.31481612  0.80128852    -0.12700
F1744       F  0.77368619  0.40671901  0.83317854    -0.13300
F1745       F  0.73466798  0.29096816  0.80409542    -0.15500
F1746       F  0.70836225  0.42959035  0.84380744    -0.14100
F1747       F  0.63572093  0.34114145  0.87586139    -0.14100
F1748       F  0.59878606  0.46031988  0.78244561    -0.15500
C1749       C  0.90980684  0.20152021  0.64105834     0.14500
C1750       C  0.88923846  0.17975617  0.66628660     0.01500
C1751       C  0.86378157  0.18380688  0.00847954     0.16500
C1752       C  0.85507656  0.21943286  0.00917342     0.25900
C1753       C  0.87022376  0.24983590  0.65629355    -0.40400
C1754       C  0.90036305  0.23623216  0.63603286     0.32900
C1755       C  0.89882537  0.14267197  0.66968717     0.01600
F1756       F  0.84069146  0.16154875  0.02411120    -0.12800
F1757       F  0.92155526  0.25704433  0.61354495    -0.13300
C1758       C  0.93041193  0.13234797  0.69286336     0.16500
C1759       C  0.94007896  0.09725514  0.69336196     0.25900
C1760       C  0.91815106  0.07190038  0.67090072    -0.40400
C1761       C  0.89376230  0.07239147  0.97065924     0.32900
C1762       C  0.88441621  0.10786985  0.97121480     0.14600
F1763       F  0.95171103  0.15628581  0.71541591    -0.12700
F1764       F  0.87106053  0.04933407  0.94921888    -0.13300
F1765       F  0.97063072  0.08813463  0.71622893    -0.15500
F1766       F  0.85406337  0.11738901  0.94815497    -0.14100
F1767       F  0.93906197  0.18905903  0.62118880    -0.14100
F1768       F  0.82386793  0.23035442  0.02451925    -0.15500
C1769       C  0.61504969  0.39572270  0.98188194     0.14500
C1770       C  0.63722303  0.42410843  0.99006051     0.01500
C1771       C  0.61853367  0.45553653  0.66952163     0.16500
C1772       C  0.58250483  0.45986677  0.67222928     0.25900
C1773       C  0.56395751  0.43212514  0.99750272    -0.40400
C1774       C  0.57906216  0.39970700  0.98520774     0.32900
C1775       C  0.67600117  0.41948387  0.98876931     0.01600
F1776       F  0.63892243  0.48317777  0.68058894    -0.12800
F1777       F  0.55902280  0.37145638  0.97750002    -0.13300
C1778       C  0.69600735  0.44002255  0.96028081     0.16500
C1779       C  0.73241840  0.43617189  0.96121708     0.25900
C1780       C  0.74982793  0.41181633  0.99083043    -0.40400
C1781       C  0.72672781  0.39084592  0.68484117     0.32900
C1782       C  0.69041880  0.39329803  0.68303839     0.14600
F1783       F  0.68024420  0.46346064  0.93082617    -0.12700
F1784       F  0.74251694  0.36561579  0.71080458    -0.13300
F1785       F  0.75071644  0.45667268  0.93381025    -0.15500
F1786       F  0.67291798  0.37128378  0.70915607    -0.14100
F1787       F  0.62820071  0.36385024  0.97043927    -0.14100
F1788       F  0.56964254  0.49181850  0.68413903    -0.15500
loop_ 
_geom_bond_atom_site_label_1 
_geom_bond_atom_site_label_2 
_geom_bond_distance 
_geom_bond_site_symmetry_2 
_ccdc_geom_bond_type 
C1            C3   1.550       .  S
C1            C5   1.560       .  S
C1            C4   1.575       .  S
C1           C25   1.692       .  S
C2            C6   1.554       .  S
C2            C8   1.560       .  S
C2            C7   1.566       .  S
C2           C24   1.683       .  S
C3           C11   1.378       .  A
C3          C602   1.416       .  A
C4           C15   1.394       .  A
C4          C603   1.434       .  A
C5           C19   1.379       .  A
C5          C604   1.424       .  A
C6            C9   1.380       .  A
C6         C1195   1.416   1_554  A
C7           C13   1.389       .  A
C7         C1196   1.427   1_554  A
C8           C16   1.387       .  A
C8         C1197   1.425   1_554  A
C9           N10   1.364       .  A
C9           H22   1.080       .  S
N10        C1203   1.361   1_554  A
N10         N148   1.421       .  S
C11         N606   1.360       .  A
C11          H12   1.080       .  S
C13        N1206   1.362   1_554  A
C13          H23   1.081       .  S
N14          C15   1.361       .  A
N14         C609   1.358       .  A
N14         C588   1.457       .  S
C15          H21   1.074       .  S
C16          N17   1.358   1_554  A
C16          H18   1.081       .  S
N17        C1211   1.363       .  A
N17         C561   1.452       .  S
C19         N613   1.359       .  A
C19          H20   1.075       .  S
C24          C26   1.556       .  S
C24          C28   1.555       .  S
C24          C27   1.541       .  S
C25          C29   1.561       .  S
C25          C31   1.561       .  S
C25          C30   1.544       .  S
C26          C34   1.382       .  A
C26          C29   1.440       .  A
C27          C38   1.370       .  A
C27          C30   1.416       .  A
C28          C42   1.375       .  A
C28          C31   1.441       .  A
C29          C32   1.387       .  A
C30          C36   1.371       .  A
C31          C39   1.375       .  A
C32          N33   1.357       .  A
C32          H45   1.078       .  S
N33          C34   1.354       .  A
N33         N171   1.421       .  S
C34          H35   1.078       .  S
C36          N37   1.354       .  A
C36          H46   1.080       .  S
N37          C38   1.352       .  A
N37         C548   1.425       .  S
C38          H44   1.078       .  S
C39          N40   1.354       .  A
C39          H41   1.081       .  S
N40          C42   1.350       .  A
N40         C521   1.427       .  S
C42          H43   1.081       .  S
C47          C49   1.564       .  S
C47          C51   1.556       .  S
C47          C50   1.537       .  S
C47          C71   1.674       .  S
C48          C52   1.558       .  S
C48          C54   1.547       .  S
C48          C53   1.564       .  S
C48          C70   1.708       .  S
C49          C57   1.385       .  A
C49        C1244   1.423   1_554  A
C50          C61   1.373       .  A
C50        C1245   1.420   1_554  A
C51          C65   1.377       .  A
C51        C1246   1.431   1_554  A
C52          C55   1.377       .  A
C52         C645   1.442       .  A
C53          C59   1.380       .  A
C53         C646   1.420       .  A
C54          C62   1.373       .  A
C54         C647   1.436       .  A
C55         N652   1.348       .  A
C55          H68   1.055       .  S
N56          C57   1.362       .  A
N56        C1247   1.362   1_554  A
N56         N194   1.423       .  S
C57          H58   1.080       .  S
C59         N656   1.364       .  A
C59          H69   1.074       .  S
N60          C61   1.351       .  A
N60        C1251   1.355   1_554  A
N60         C508   1.430       .  S
C61          H67   1.082       .  S
C62          N63   1.350       .  A
C62          H64   1.081       .  S
N63         C661   1.357       .  A
N63         C481   1.433       .  S
C65        N1255   1.353   1_554  A
C65          H66   1.077       .  S
C70          C72   1.583       .  S
C70          C74   1.561       .  S
C70          C73   1.562       .  S
C71          C75   1.531       .  S
C71          C77   1.555       .  S
C71          C76   1.543       .  S
C72          C80   1.385       .  A
C72          C75   1.435       .  A
C73          C84   1.381       .  A
C73          C76   1.435       .  A
C74          C88   1.389       .  A
C74          C77   1.426       .  A
C75          C78   1.377       .  A
C76          C82   1.374       .  A
C77          C85   1.374       .  A
C78          N79   1.338       .  A
C78          H91   1.077       .  S
N79          C80   1.358       .  A
N79         N217   1.413       .  S
C80          H81   1.076       .  S
C82          N83   1.347       .  A
C82          H92   1.081       .  S
N83          C84   1.356       .  A
N83         C461   1.432       .  S
C84          H90   1.080       .  S
C85          N86   1.355       .  A
C85          H87   1.075       .  S
N86          C88   1.360       .  A
N86         C441   1.442       .  S
C88          H89   1.081       .  S
Zn93         O98   2.092   1_565  S
Zn93        O102   1.976       .  S
Zn93        O109   1.979       .  S
Zn93        O693   2.101       .  S
Zn94         O99   1.899   1_655  S
Zn94        O101   2.157   1_565  S
Zn94        O105   2.021   1_654  S
Zn94         O97   2.109       .  S
Zn95        O100   2.064       .  S
Zn95        O103   1.970       .  S
Zn95        O106   1.947       .  S
Zn95         O97   1.944       .  S
Zn96        O104   2.030       .  S
Zn96        O107   2.196   1_655  S
Zn96        O108   2.027       .  S
Zn96        O693   1.981       .  S
O97       Zn1285   2.022   1_554  S
O97       Zn1288   2.017   1_554  S
O98         C706   1.284       .  A
O99         C111   1.248   1_455  A
O100        C112   1.275       .  A
O101        C110   1.290   1_554  A
O102        C708   1.265       .  A
O103        C111   1.263       .  A
O104        C709   1.273       .  A
O105        C114   1.277       .  A
O106        C113   1.260       .  A
O107        C710   1.293       .  A
O108        C115   1.262       .  A
O109        C115   1.252       .  A
C110       O1290   1.288   1_545  A
C110        C568   1.522       .  S
C111        C135   1.473       .  S
C112       O1294   1.269   1_554  A
C112        C501   1.464       .  S
C113       O1296   1.264   1_554  A
C113        C421   1.470       .  S
C114       O1299   1.282       .  A
C114        C408   1.483       .  S
C115        C137   1.465       .  S
Zn116       O121   1.967   1_565  S
Zn116       O125   1.973       .  S
Zn116       O132   2.033   1_655  S
Zn116       O120   1.993       .  S
Zn117       O122   2.008       .  S
Zn117       O124   2.002   1_565  S
Zn117       O128   1.918       .  S
Zn117       O120   1.980       .  S
Zn118       O123   2.031       .  S
Zn118       O126   2.034       .  S
Zn118       O129   2.145       .  S
Zn118       O120   1.961       .  S
Zn119       O127   2.075       .  S
Zn119       O130   1.962       .  S
Zn119       O131   2.002   1_655  S
Zn119       O120   1.993       .  S
O121        C133   1.259       .  A
O122        C134   1.270       .  A
O123        C135   1.264       .  A
O124        C133   1.265       .  A
O125        C135   1.269       .  A
O126        C134   1.274       .  A
O127        C136   1.279       .  A
O128        C137   1.262       .  A
O129        C136   1.289       .  A
O130        C137   1.257       .  A
O131        C138   1.266       .  A
O132        C138   1.271       .  A
C133        C528   1.461       .  S
C134        C468   1.487       .  S
C136        C388   1.486       .  S
C138        C361   1.479       .  S
C139        C141   1.560       .  S
C139        C143   1.555   1_455  S
C139        C142   1.543       .  S
C139        C163   1.691       .  S
C140        C144   1.556       .  S
C140        C146   1.556   1_455  S
C140        C145   1.549       .  S
C140        C162   1.687       .  S
C141        C149   1.384   1_455  A
C141        C740   1.439       .  A
C142        C153   1.371       .  A
C142        C741   1.418       .  A
C143        C157   1.373       .  A
C143        C742   1.443       .  A
C144        C147   1.381   1_455  A
C144       C1333   1.443   1_554  A
C145        C151   1.375       .  A
C145       C1334   1.415   1_554  A
C146        C154   1.374       .  A
C146       C1335   1.436   1_554  A
C147        N148   1.354       .  A
C147        H160   1.078       .  S
N148       C1341   1.358   1_554  A
C149        N744   1.358       .  A
C149        H150   1.078       .  S
C151       N1344   1.356       .  A
C151        H161   1.078       .  S
N152        C153   1.352       .  A
N152        C747   1.355       .  A
N152        C348   1.427       .  S
C153        H159   1.080       .  S
C154        N155   1.354       .  A
C154        H156   1.081       .  S
N155       C1349   1.349   1_554  A
N155        C428   1.424       .  S
C157        N751   1.348       .  A
C157        H158   1.080       .  S
C162        C164   1.550   1_455  S
C162        C166   1.554       .  S
C162        C165   1.557       .  S
C163        C167   1.559   1_455  S
C163        C169   1.566       .  S
C163        C168   1.579       .  S
C164        C172   1.380       .  A
C164        C167   1.416       .  A
C165        C176   1.378       .  A
C165        C168   1.434       .  A
C166        C180   1.373       .  A
C166        C169   1.423       .  A
C167        C170   1.383       .  A
C168        C174   1.402       .  A
C169        C177   1.390       .  A
C170        N171   1.363       .  A
C170        H183   1.080       .  S
N171        C172   1.363       .  A
C172        H173   1.080       .  S
C174        N175   1.364       .  A
C174        H184   1.080       .  S
N175        C176   1.352       .  A
N175        C328   1.454       .  S
C176        H182   1.071       .  S
C177        N178   1.362       .  A
C177        H179   1.081       .  S
N178        C180   1.353       .  A
N178        C381   1.441       .  S
C180        H181   1.071       .  S
C185        C187   1.565       .  S
C185        C189   1.557       .  S
C185        C188   1.571   1_545  S
C185        C209   1.664       .  S
C186        C190   1.570   1_545  S
C186        C192   1.592       .  S
C186        C191   1.591       .  S
C186        C208   1.753       .  S
C187        C195   1.388   1_545  A
C187       C1382   1.420   1_554  A
C188        C199   1.385       .  A
C188       C1383   1.421   1_554  A
C189        C203   1.381       .  A
C189       C1384   1.411   1_554  A
C190        C193   1.379       .  A
C190        C783   1.442       .  A
C191        C197   1.393       .  A
C191        C784   1.424       .  A
C192        C200   1.392       .  A
C192        C785   1.430       .  A
C193        N790   1.330       .  A
C193        H206   1.077       .  S
N194        C195   1.362       .  A
N194       C1385   1.358   1_554  A
C195        H196   1.077       .  S
C197        N794   1.358       .  A
C197        H207   1.070       .  S
N198        C199   1.358   1_556  A
N198       C1389   1.352       .  A
N198        C401   1.442       .  S
C199        H205   1.076       .  S
C200        N201   1.356       .  A
C200        H202   1.068       .  S
N201        C799   1.349       .  A
N201        C308   1.448       .  S
C203       N1393   1.358   1_554  A
C203        H204   1.076       .  S
C208        C210   1.582   1_545  S
C208        C212   1.547       .  S
C208        C211   1.555       .  S
C209        C213   1.534   1_545  S
C209        C215   1.563       .  S
C209        C214   1.548       .  S
C210        C218   1.365       .  A
C210        C213   1.419       .  A
C211        C222   1.379   1_545  A
C211        C214   1.437       .  A
C212        C226   1.378       .  A
C212        C215   1.433       .  A
C213        C216   1.385       .  A
C214        C220   1.363       .  A
C215        C223   1.375       .  A
C216        N217   1.348       .  A
C216        H229   1.081       .  S
N217        C218   1.346       .  A
C218        H219   1.062       .  S
C220        N221   1.342       .  A
C220        H230   1.072       .  S
N221        C222   1.345   1_545  A
N221        C368   1.419   1_545  S
C222        H228   1.077       .  S
C223        N224   1.350       .  A
C223        H225   1.070       .  S
N224        C226   1.344       .  A
N224        C288   1.432       .  S
C226        H227   1.079       .  S
Zn231       O236   2.005       .  S
Zn231       O240   1.952       .  S
Zn231       O247   1.931       .  S
Zn231       O235   1.984       .  S
Zn232       O237   1.980       .  S
Zn232       O239   2.011       .  S
Zn232       O243   2.100       .  S
Zn232      O1427   1.935   1_554  S
Zn233       O238   2.018   1_554  S
Zn233       O241   1.931       .  S
Zn233       O244   2.011       .  S
Zn233      O1427   2.023   1_554  S
Zn234       O242   2.020       .  S
Zn234       O245   2.104       .  S
Zn234       O246   1.992       .  S
Zn234       O235   1.920       .  S
O235       Zn828   1.963       .  S
O235       Zn829   2.055       .  S
O236        C248   1.267       .  A
O237        C249   1.261       .  A
O238       C1442   1.266       .  A
O239       C1440   1.268   1_554  A
O240        C250   1.260       .  A
O241        C249   1.259       .  A
O242        C251   1.270       .  A
O243       C1444   1.284   1_554  A
O244       C1443   1.270       .  A
O245        C252   1.284       .  A
O246        C253   1.262       .  A
O247        C253   1.266       .  A
C248        O835   1.270       .  A
C248        C488   1.472       .  S
C249        C276   1.465       .  S
C250        O834   1.272       .  A
C250        C341   1.470       .  S
C251        O840   1.280       .  A
C251        C301   1.504       .  S
C252        O839   1.284       .  A
C252        C581   1.504       .  S
C253        C272   1.470       .  S
Zn254       O259   1.984       .  S
Zn254       O263   2.138       .  S
Zn254       O270   2.016       .  S
Zn254       O258   1.991       .  S
Zn255       O260   2.022       .  S
Zn255       O262   2.008       .  S
Zn255       O266   2.125       .  S
Zn255       O258   1.957       .  S
Zn256       O261   2.009       .  S
Zn256       O264   1.968       .  S
Zn256       O267   2.158       .  S
Zn256       O258   2.116       .  S
Zn257       O265   2.116       .  S
Zn257       O268   1.959       .  S
Zn257       O269   1.970       .  S
Zn257       O258   2.113       .  S
O259        C271   1.267       .  A
O260        C272   1.267       .  A
O261        C273   1.272       .  A
O262        C271   1.270       .  A
O263        C273   1.286       .  A
O264        C272   1.253       .  A
O265        C274   1.285       .  A
O266        C275   1.284       .  A
O267        C274   1.292       .  A
O268        C275   1.263       .  A
O269        C276   1.254       .  A
O270        C276   1.265       .  A
C271        C541   1.473       .  S
C273        C448   1.505       .  S
C274        C321   1.507       .  S
C275        C281   1.473       .  S
C277        C278   1.405       .  A
C277        C282   1.397       .  A
C277        F295   1.358       .  S
C278        C279   1.408       .  A
C278        C283   1.485       .  S
C279        C280   1.400       .  A
C279        F284   1.357       .  S
C280        C281   1.403       .  A
C280        F296   1.358       .  S
C281        C282   1.409       .  A
C282        F285   1.358       .  S
C283        C286   1.410       .  A
C283        C290   1.405       .  A
C286        C287   1.401       .  A
C286        F291   1.358       .  S
C287        C288   1.401       .  A
C287        F293   1.355       .  S
C288        C289   1.402       .  A
C289        C290   1.396       .  A
C289        F292   1.357       .  S
C290        F294   1.357       .  S
C297        C302   1.396       .  A
C297       C1490   1.408   1_556  A
C297        F315   1.358       .  S
C298        C299   1.412       .  A
C298        C893   1.406       .  A
C298        C899   1.503       .  S
C299        C300   1.408       .  A
C299        F304   1.358       .  S
C300        C301   1.410       .  A
C300        F316   1.357       .  S
C301        C898   1.417       .  A
C302       C1493   1.409   1_556  A
C302        F305   1.358       .  S
C303        C306   1.403       .  A
C303       C1502   1.412   1_554  A
C303       C1490   1.483       .  S
C306        C307   1.390       .  A
C306        F311   1.358       .  S
C307       C1500   1.404       .  A
C307        F313   1.349       .  S
C308        C309   1.408       .  A
C308        C903   1.404       .  A
C309        C310   1.401       .  A
C309        F312   1.357       .  S
C310        C899   1.408       .  A
C310        F314   1.358       .  S
C317        C318   1.411       .  A
C317        C322   1.411       .  A
C317        F335   1.358       .  S
C318        C319   1.412       .  A
C318        C323   1.513       .  S
C319        C320   1.411       .  A
C319        F324   1.357       .  S
C320        C321   1.410       .  A
C320        F336   1.357       .  S
C321        C322   1.413       .  A
C322        F325   1.358       .  S
C323        C326   1.414       .  A
C323        C330   1.411       .  A
C326        C327   1.412       .  A
C326        F331   1.357       .  S
C327        C328   1.404       .  A
C327        F333   1.356       .  S
C328        C329   1.411       .  A
C329        C330   1.410       .  A
C329        F332   1.356       .  S
C330        F334   1.358       .  S
C337        C338   1.408       .  A
C337        C342   1.396       .  A
C337        F355   1.356       .  S
C338        C935   1.400       .  A
C338        C939   1.473       .  S
C339        C340   1.390       .  A
C339       C1530   1.400       .  A
C339        F344   1.358       .  S
C340       C1533   1.410       .  A
C340        F356   1.358       .  S
C341        C342   1.402       .  A
C341        C936   1.412       .  A
C342        F345   1.358       .  S
C343        C346   1.401       .  A
C343       C1542   1.410       .  A
C343       C1530   1.472       .  S
C346        C347   1.385       .  A
C346        F351   1.358       .  S
C347       C1540   1.404       .  A
C347        F353   1.354       .  S
C348        C349   1.398       .  A
C348        C943   1.404       .  A
C349        C350   1.400       .  A
C349        F352   1.357       .  S
C350        C939   1.410       .  A
C350        F354   1.358       .  S
C357        C358   1.401       .  A
C357        C362   1.391       .  A
C357        F375   1.358   1_565  S
C358        C359   1.401       .  A
C358        C363   1.466       .  S
C359        C360   1.395       .  A
C359        F364   1.358       .  S
C360        C361   1.412       .  A
C360        F376   1.357       .  S
C361        C362   1.409       .  A
C362        F365   1.358   1_565  S
C363        C366   1.404   1_565  A
C363        C370   1.405       .  A
C366        C367   1.387       .  A
C366        F371   1.357       .  S
C367        C368   1.397   1_545  A
C367        F373   1.357       .  S
C368        C369   1.400       .  A
C369        C370   1.396       .  A
C369        F372   1.356       .  S
C370        F374   1.357       .  S
C377        C378   1.416   1_455  A
C377        C382   1.407       .  A
C377        F395   1.358       .  S
C378        C379   1.411       .  A
C378        C383   1.506       .  S
C379        C380   1.402       .  A
C379        F384   1.355       .  S
C380        C381   1.403   1_655  A
C380        F396   1.357       .  S
C381        C382   1.402       .  A
C382        F385   1.357       .  S
C383        C386   1.411       .  A
C383        C390   1.415       .  A
C386        C387   1.404       .  A
C386        F391   1.357   1_655  S
C387        C388   1.405       .  A
C387        F393   1.358   1_655  S
C388        C389   1.405       .  A
C389        C390   1.408       .  A
C389        F392   1.358       .  S
C390        F394   1.357       .  S
C397        C402   1.394       .  A
C397       C1590   1.408       .  A
C397        F415   1.358   1_556  S
C398        C399   1.410       .  A
C398        C993   1.417   1_565  A
C398        C403   1.511       .  S
C399        C400   1.407       .  A
C399        F404   1.357       .  S
C400        C997   1.410   1_565  A
C400        F416   1.356       .  S
C401        C402   1.403       .  A
C401       C1592   1.404       .  A
C402        F405   1.353   1_566  S
C403        C406   1.407       .  A
C403       C1006   1.417       .  A
C406        C407   1.400       .  A
C406        F411   1.357   1_565  S
C407       C1004   1.410       .  A
C407        F413   1.358   1_565  S
C408        C409   1.407       .  A
C408       C1599   1.406       .  A
C409        C410   1.403       .  A
C409        F412   1.358   1_556  S
C410       C1595   1.410       .  A
C410        F414   1.357   1_556  S
C417        C418   1.399       .  A
C417        C422   1.389       .  A
C417        F435   1.358       .  S
C418       C1015   1.408       .  A
C418        C423   1.475       .  S
C419        C420   1.388       .  A
C419       C1610   1.405   1_556  A
C419        F424   1.356       .  S
C420        C421   1.406   1_556  A
C420        F436   1.358   1_655  S
C421       C1614   1.413       .  A
C422       C1017   1.413       .  A
C422        F425   1.359       .  S
C423        C426   1.412       .  A
C423       C1026   1.402       .  A
C426        C427   1.400       .  A
C426        F431   1.358       .  S
C427       C1024   1.398       .  A
C427        F433   1.357       .  S
C428        C429   1.402       .  A
C428       C1619   1.398       .  A
C429        C430   1.377       .  A
C429        F432   1.353   1_655  S
C430       C1615   1.399       .  A
C430        F434   1.359   1_655  S
C437        C438   1.410       .  A
C437        C442   1.397       .  A
C437        F455   1.358       .  S
C438        C439   1.414       .  A
C438        C443   1.502       .  S
C439        C440   1.411       .  A
C439        F444   1.357       .  S
C440        C441   1.405       .  A
C440        F456   1.357       .  S
C441        C442   1.402       .  A
C442        F445   1.356       .  S
C443        C446   1.412       .  A
C443        C450   1.405       .  A
C446        C447   1.413       .  A
C446        F451   1.357       .  S
C447        C448   1.412       .  A
C447        F453   1.357       .  S
C448        C449   1.416       .  A
C449        C450   1.395       .  A
C449        F452   1.358       .  S
C450        F454   1.359       .  S
C457        C458   1.412       .  A
C457        C462   1.401       .  A
C457        F475   1.357       .  S
C458        C459   1.406       .  A
C458        C463   1.487       .  S
C459        C460   1.392       .  A
C459        F464   1.358       .  S
C460        C461   1.402       .  A
C460        F476   1.353       .  S
C461        C462   1.400       .  A
C462        F465   1.357       .  S
C463        C466   1.405       .  A
C463        C470   1.407       .  A
C466        C467   1.398       .  A
C466        F471   1.358       .  S
C467        C468   1.412       .  A
C467        F473   1.358   1_565  S
C468        C469   1.409       .  A
C469        C470   1.396       .  A
C469        F472   1.358       .  S
C470        F474   1.356       .  S
C477        C478   1.411       .  A
C477        C482   1.401       .  A
C477        F495   1.357       .  S
C478       C1075   1.406       .  A
C478        C483   1.484       .  S
C479        C480   1.394   1_556  A
C479       C1670   1.404       .  A
C479        F484   1.357   1_556  S
C480       C1673   1.405   1_554  A
C480        F496   1.353       .  S
C481        C482   1.401       .  A
C481       C1076   1.403       .  A
C482        F485   1.357       .  S
C483        C486   1.409       .  A
C483       C1086   1.407       .  A
C486        C487   1.398       .  A
C486        F491   1.358       .  S
C487        C488   1.404       .  A
C487        F493   1.358       .  S
C488       C1085   1.405       .  A
C489        C490   1.394       .  A
C489       C1680   1.402   1_554  A
C489        F492   1.358       .  S
C490       C1675   1.407   1_554  A
C490        F494   1.358       .  S
C497        C498   1.409       .  A
C497        C502   1.397       .  A
C497        F515   1.358       .  S
C498       C1095   1.412       .  A
C498        C503   1.500       .  S
C499        C500   1.397       .  A
C499       C1690   1.410       .  A
C499        F504   1.358   1_554  S
C500        C501   1.401       .  A
C500        F516   1.358       .  S
C501       C1694   1.400       .  A
C502       C1097   1.407       .  A
C502        F505   1.358       .  S
C503        C506   1.410       .  A
C503       C1106   1.412       .  A
C506        C507   1.396       .  A
C506        F511   1.358       .  S
C507       C1104   1.403       .  A
C507        F513   1.354       .  S
C508        C509   1.398       .  A
C508       C1699   1.403   1_554  A
C509        C510   1.397       .  A
C509        F512   1.357       .  S
C510       C1695   1.412       .  A
C510        F514   1.357       .  S
C517        C518   1.403       .  A
C517        C522   1.384       .  A
C517        F535   1.359       .  S
C518        C519   1.410       .  A
C518        C523   1.473       .  S
C519        C520   1.401       .  A
C519        F524   1.358       .  S
C520        C521   1.400       .  A
C520        F536   1.357       .  S
C521        C522   1.402       .  A
C522        F525   1.356       .  S
C523        C526   1.405       .  A
C523        C530   1.403       .  A
C526        C527   1.390       .  A
C526        F531   1.354       .  S
C527        C528   1.401       .  A
C527        F533   1.358       .  S
C528        C529   1.407       .  A
C529        C530   1.392       .  A
C529        F532   1.359       .  S
C530        F534   1.357       .  S
C537        C538   1.404       .  A
C537        C542   1.393       .  A
C537        F555   1.358       .  S
C538        C539   1.408       .  A
C538        C543   1.479       .  S
C539        C540   1.395       .  A
C539        F544   1.358       .  S
C540        C541   1.406       .  A
C540        F556   1.358       .  S
C541        C542   1.405       .  A
C542        F545   1.357       .  S
C543        C546   1.414       .  A
C543        C550   1.404       .  A
C546        C547   1.398       .  A
C546        F551   1.358       .  S
C547        C548   1.395       .  A
C547        F553   1.357       .  S
C548        C549   1.404       .  A
C549        C550   1.387       .  A
C549        F552   1.357       .  S
C550        F554   1.357       .  S
C557        C558   1.414       .  A
C557        C562   1.408       .  A
C557        F575   1.352       .  S
C558       C1751   1.417   1_556  A
C558        C563   1.522       .  S
C559        C560   1.405       .  A
C559       C1154   1.412       .  A
C559        F564   1.358       .  S
C560       C1157   1.404       .  A
C560        F576   1.357       .  S
C561        C562   1.404       .  A
C561       C1752   1.407   1_556  A
C562        F565   1.357       .  S
C563        C566   1.413   1_556  A
C563       C1762   1.413       .  A
C566        C567   1.412       .  A
C566        F571   1.357       .  S
C567        C568   1.415   1_554  A
C567        F573   1.357       .  S
C568       C1761   1.417       .  A
C569        C570   1.402       .  A
C569       C1164   1.412       .  A
C569        F572   1.358       .  S
C570       C1159   1.406       .  A
C570        F574   1.358       .  S
C577        C578   1.410       .  A
C577        C582   1.407       .  A
C577        F595   1.356       .  S
C578       C1175   1.410       .  A
C578        C583   1.508       .  S
C579        C580   1.411       .  A
C579       C1770   1.411   1_554  A
C579        F584   1.357       .  S
C580       C1773   1.413   1_554  A
C580        F596   1.358       .  S
C581        C582   1.410       .  A
C581       C1176   1.412       .  A
C582        F585   1.358       .  S
C583        C586   1.413       .  A
C583       C1186   1.406       .  A
C586        C587   1.414       .  A
C586        F591   1.357       .  S
C587        C588   1.409       .  A
C587        F593   1.356       .  S
C588       C1185   1.410       .  A
C589        C590   1.406       .  A
C589       C1780   1.409   1_554  A
C589        F592   1.353       .  S
C590       C1775   1.408   1_554  A
C590        F594   1.355       .  S
C597        C599   1.546       .  S
C597        C601   1.562       .  S
C597        C600   1.574       .  S
C597        C621   1.690       .  S
C598        C602   1.554       .  S
C598        C604   1.555       .  S
C598        C603   1.562       .  S
C598        C620   1.684       .  S
C599        C607   1.376       .  A
C599       C1198   1.416       .  A
C600        C611   1.391       .  A
C600       C1199   1.436       .  A
C601        C615   1.380       .  A
C601       C1200   1.422       .  A
C602        C605   1.379       .  A
C603        C609   1.386       .  A
C604        C612   1.380       .  A
C605        N606   1.363       .  A
C605        H618   1.080       .  S
N606        N744   1.419       .  S
C607       N1202   1.358       .  A
C607        H608   1.079       .  S
C609        H619   1.081       .  S
N610       C1205   1.362       .  A
N610        C611   1.361       .  A
N610       C1184   1.461       .  S
C611        H617   1.075       .  S
C612        N613   1.357       .  A
C612        H614   1.082       .  S
N613       C1157   1.440       .  S
C615       N1209   1.361       .  A
C615        H616   1.074       .  S
C620        C622   1.558       .  S
C620        C624   1.551       .  S
C620        C623   1.545       .  S
C621        C625   1.564       .  S
C621        C627   1.557       .  S
C621        C626   1.543       .  S
C622        C630   1.382       .  A
C622        C625   1.443       .  A
C623        C634   1.372       .  A
C623        C626   1.416       .  A
C624        C638   1.374       .  A
C624        C627   1.435       .  A
C625        C628   1.387       .  A
C626        C632   1.372       .  A
C627        C635   1.373       .  A
C628        N629   1.358       .  A
C628        H641   1.078       .  S
N629        C630   1.354       .  A
N629        N767   1.422       .  S
C630        H631   1.078       .  S
C632        N633   1.354       .  A
C632        H642   1.080       .  S
N633        C634   1.352       .  A
N633       C1144   1.427       .  S
C634        H640   1.076       .  S
C635        N636   1.355       .  A
C635        H637   1.082       .  S
N636        C638   1.350       .  A
N636       C1117   1.425       .  S
C638        H639   1.081       .  S
C643        C645   1.571       .  S
C643        C647   1.564       .  S
C643        C646   1.544       .  S
C643        C667   1.706       .  S
C644        C648   1.582       .  S
C644        C650   1.561       .  S
C644        C649   1.561       .  S
C644        C666   1.706       .  S
C645        C653   1.379       .  A
C646        C657   1.376       .  A
C647        C661   1.379       .  A
C648       C1241   1.433       .  A
C648        C651   1.387       .  A
C649       C1242   1.424       .  A
C649        C655   1.381       .  A
C650       C1243   1.437       .  A
C650        C658   1.383       .  A
C651       N1248   1.359       .  A
C651        H664   1.076       .  S
N652        C653   1.344       .  A
N652        N790   1.431       .  S
C653        H654   1.066       .  S
C655       N1252   1.362       .  A
C655        H665   1.076       .  S
N656        C657   1.354       .  A
N656       C1104   1.445       .  S
C657        H663   1.081       .  S
C658        N659   1.351       .  A
C658        H660   1.080       .  S
N659       C1257   1.353       .  A
N659       C1077   1.437       .  S
C661        H662   1.079       .  S
C666        C668   1.559       .  S
C666        C670   1.565       .  S
C666        C669   1.555       .  S
C667        C671   1.569       .  S
C667        C673   1.553       .  S
C667        C672   1.557       .  S
C668        C676   1.375       .  A
C668        C671   1.440       .  A
C669        C680   1.374       .  A
C669        C672   1.431       .  A
C670        C684   1.391       .  A
C670        C673   1.421       .  A
C671        C674   1.379       .  A
C672        C678   1.380       .  A
C673        C681   1.373       .  A
C674        N675   1.348       .  A
C674        H687   1.064       .  S
N675        C676   1.347       .  A
N675        N813   1.433       .  S
C676        H677   1.061       .  S
C678        N679   1.354       .  A
C678        H688   1.081       .  S
N679        C680   1.357       .  A
N679       C1057   1.436       .  S
C680        H686   1.078       .  S
C681        N682   1.357       .  A
C681        H683   1.074       .  S
N682        C684   1.363       .  A
N682       C1037   1.446       .  S
C684        H685   1.082       .  S
Zn689       O694   2.066   1_565  S
Zn689       O698   1.988       .  S
Zn689       O705   1.964       .  S
Zn689      O1289   2.062       .  S
Zn690       O695   1.963   1_655  S
Zn690       O697   2.134   1_565  S
Zn690       O701   1.965   1_655  S
Zn690       O693   2.101       .  S
Zn691       O696   2.108       .  S
Zn691       O699   1.992       .  S
Zn691       O702   1.933       .  S
Zn691       O693   1.958       .  S
Zn692       O700   2.044       .  S
Zn692       O703   2.157   1_655  S
Zn692       O704   2.032       .  S
Zn692      O1289   1.988       .  S
O694       C1302   1.282       .  A
O695        C707   1.251   1_455  A
O696        C708   1.279       .  A
O697        C706   1.288       .  A
O698       C1304   1.267       .  A
O699        C707   1.264       .  A
O700       C1305   1.273       .  A
O701        C710   1.265       .  A
O702        C709   1.262       .  A
O703       C1306   1.290       .  A
O704        C711   1.264       .  A
O705        C711   1.257       .  A
C706       C1164   1.493       .  S
C707        C731   1.467       .  S
C708       C1097   1.487       .  S
C709       C1017   1.471       .  S
C710       C1004   1.496       .  S
C711        C733   1.464       .  S
Zn712       O717   1.993       .  S
Zn712       O721   1.961       .  S
Zn712       O728   2.063   1_645  S
Zn712       O716   2.002   1_545  S
Zn713       O718   2.016       .  S
Zn713       O720   2.001   1_565  S
Zn713       O724   1.904   1_565  S
Zn713       O716   2.017       .  S
Zn714       O719   1.980       .  S
Zn714       O722   2.012       .  S
Zn714       O725   2.107       .  S
Zn714       O716   1.971       .  S
Zn715       O723   2.082       .  S
Zn715       O726   1.964       .  S
Zn715       O727   2.029   1_655  S
Zn715       O716   1.926       .  S
O717        C729   1.264       .  A
O718        C730   1.269       .  A
O719        C731   1.264       .  A
O720        C729   1.267       .  A
O721        C731   1.266   1_545  A
O722        C730   1.270       .  A
O723        C732   1.280       .  A
O724        C733   1.261   1_545  A
O725        C732   1.282       .  A
O726        C733   1.262       .  A
O727        C734   1.271       .  A
O728        C734   1.274       .  A
C729       C1124   1.472       .  S
C730       C1064   1.483       .  S
C732        C984   1.483       .  S
C734        C957   1.498       .  S
C735        C737   1.563       .  S
C735        C739   1.557   1_455  S
C735        C738   1.546       .  S
C735        C759   1.691       .  S
C736        C740   1.554       .  S
C736        C742   1.562   1_455  S
C736        C741   1.547       .  S
C736        C758   1.694       .  S
C737        C745   1.385   1_455  A
C737       C1336   1.436       .  A
C738        C749   1.373       .  A
C738       C1337   1.418       .  A
C739        C753   1.377       .  A
C739       C1338   1.442       .  A
C740        C743   1.379   1_455  A
C741        C747   1.373       .  A
C742        C750   1.379       .  A
C743        N744   1.353       .  A
C743        H756   1.077       .  S
C745       N1340   1.359       .  A
C745        H746   1.078       .  S
C747        H757   1.078       .  S
N748       C1343   1.352       .  A
N748        C749   1.355       .  A
N748        C944   1.424       .  S
C749        H755   1.080       .  S
C750        N751   1.354       .  A
C750        H752   1.079       .  S
N751       C1024   1.429       .  S
C753       N1347   1.349       .  A
C753        H754   1.079       .  S
C758        C760   1.555   1_455  S
C758        C762   1.555       .  S
C758        C761   1.560       .  S
C759        C763   1.557   1_455  S
C759        C765   1.569       .  S
C759        C764   1.573       .  S
C760        C768   1.381       .  A
C760        C763   1.419       .  A
C761        C772   1.379       .  A
C761        C764   1.432       .  A
C762        C776   1.374       .  A
C762        C765   1.426       .  A
C763        C766   1.381       .  A
C764        C770   1.398       .  A
C765        C773   1.392       .  A
C766        N767   1.362       .  A
C766        H779   1.080       .  S
N767        C768   1.364       .  A
C768        H769   1.080       .  S
C770        N771   1.363       .  A
C770        H780   1.080       .  S
N771        C772   1.354       .  A
N771        C924   1.452       .  S
C772        H778   1.074       .  S
C773        N774   1.363       .  A
C773        H775   1.082       .  S
N774        C776   1.353       .  A
N774        C977   1.443   1_455  S
C776        H777   1.075       .  S
C781        C783   1.561   1_545  S
C781        C785   1.547       .  S
C781        C784   1.542       .  S
C781        C805   1.686       .  S
C782        C786   1.576   1_545  S
C782        C788   1.555       .  S
C782        C787   1.554   1_545  S
C782        C804   1.742       .  S
C783        C791   1.380       .  A
C784        C795   1.385       .  A
C785        C799   1.384       .  A
C786       C1379   1.414   1_565  A
C786        C789   1.362       .  A
C787       C1380   1.434       .  A
C787        C793   1.379       .  A
C788       C1381   1.426       .  A
C788        C796   1.376       .  A
C789       N1386   1.346       .  A
C789        H802   1.068       .  S
N790        C791   1.341       .  A
C791        H792   1.065       .  S
C793       N1390   1.346       .  A
C793        H803   1.075   1_565  S
N794        C795   1.351       .  A
N794        C997   1.451       .  S
C795        H801   1.080       .  S
C796        N797   1.347       .  A
C796        H798   1.073       .  S
N797       C1395   1.344       .  A
N797        C904   1.417       .  S
C799        H800   1.079       .  S
C804        C806   1.572       .  S
C804        C808   1.587       .  S
C804        C807   1.582   1_545  S
C805        C809   1.564       .  S
C805        C811   1.546       .  S
C805        C810   1.552   1_545  S
C806        C814   1.382   1_545  A
C806        C809   1.443       .  A
C807        C818   1.385       .  A
C807        C810   1.429       .  A
C808        C822   1.392       .  A
C808        C811   1.418       .  A
C809        C812   1.383   1_545  A
C810        C816   1.384       .  A
C811        C819   1.388       .  A
C812        N813   1.341       .  A
C812        H825   1.068       .  S
N813        C814   1.332       .  A
C814        H815   1.076       .  S
C816        N817   1.352       .  A
C816        H826   1.079       .  S
N817        C818   1.355       .  A
N817        C964   1.445       .  S
C818        H824   1.070       .  S
C819        N820   1.355       .  A
C819        H821   1.081       .  S
N820        C822   1.359       .  A
N820        C884   1.454       .  S
C822        H823   1.073       .  S
Zn827       O832   2.022       .  S
Zn827       O836   1.962       .  S
Zn827       O843   1.962       .  S
Zn827       O831   1.980       .  S
Zn828       O833   1.972       .  S
Zn828       O835   2.030       .  S
Zn828       O839   2.100       .  S
Zn829       O834   2.038       .  S
Zn829       O837   1.951       .  S
Zn829       O840   2.097       .  S
Zn830       O838   1.984       .  S
Zn830       O841   2.132       .  S
Zn830       O842   2.013       .  S
Zn830       O831   1.948       .  S
O831      Zn1424   1.942       .  S
O831      Zn1425   2.031       .  S
O832        C844   1.270       .  A
O833        C845   1.262       .  A
O836        C846   1.261       .  A
O837        C845   1.257       .  A
O838        C847   1.266       .  A
O841        C848   1.286       .  A
O842        C849   1.263       .  A
O843        C849   1.267       .  A
C844       O1431   1.270       .  A
C844       C1084   1.471       .  S
C845        C872   1.460       .  S
C846       O1430   1.265       .  A
C846        C937   1.457       .  S
C847       O1436   1.271       .  A
C847        C897   1.477       .  S
C848       O1435   1.285       .  A
C848       C1177   1.511       .  S
C849        C868   1.470       .  S
Zn850       O855   1.948       .  S
Zn850       O859   2.135       .  S
Zn850       O866   2.012       .  S
Zn850       O854   1.996       .  S
Zn851       O856   2.037       .  S
Zn851       O858   2.005       .  S
Zn851       O862   2.187       .  S
Zn851       O854   1.963       .  S
Zn852       O857   2.012       .  S
Zn852       O860   1.979       .  S
Zn852       O863   2.147       .  S
Zn852       O854   2.130       .  S
Zn853       O861   2.108       .  S
Zn853       O864   1.944       .  S
Zn853       O865   1.975       .  S
Zn853       O854   2.080       .  S
O855        C867   1.264       .  A
O856        C868   1.267       .  A
O857        C869   1.271       .  A
O858        C867   1.269       .  A
O859        C869   1.284       .  A
O860        C868   1.251       .  A
O861        C870   1.283       .  A
O862        C871   1.289       .  A
O863        C870   1.290       .  A
O864        C871   1.259       .  A
O865        C872   1.255       .  A
O866        C872   1.263       .  A
C867       C1137   1.466       .  S
C869       C1044   1.507       .  S
C870        C917   1.505       .  S
C871        C877   1.495       .  S
C873        C874   1.412       .  A
C873        C878   1.406       .  A
C873        F891   1.356       .  S
C874        C875   1.419       .  A
C874        C879   1.520       .  S
C875        C876   1.412       .  A
C875        F880   1.357       .  S
C876        C877   1.405       .  A
C876        F892   1.357       .  S
C877        C878   1.411       .  A
C878        F881   1.358       .  S
C879        C882   1.421       .  A
C879        C886   1.411       .  A
C882        C883   1.415       .  A
C882        F887   1.357       .  S
C883        C884   1.404       .  A
C883        F889   1.357       .  S
C884        C885   1.407       .  A
C885        C886   1.404       .  A
C885        F888   1.355       .  S
C886        F890   1.357       .  S
C893        C898   1.402       .  A
C893        F911   1.357       .  S
C894       C1489   1.401       .  A
C894        C895   1.406       .  A
C894       C1495   1.472       .  S
C895        C896   1.395       .  A
C895        F900   1.358       .  S
C896        C897   1.409       .  A
C896        F912   1.358       .  S
C897       C1494   1.411       .  A
C898        F901   1.358       .  S
C899        C902   1.415       .  A
C902        C903   1.411       .  A
C902        F907   1.357       .  S
C903        F909   1.356       .  S
C904       C1499   1.397       .  A
C904        C905   1.397       .  A
C905        C906   1.389       .  A
C905        F908   1.357       .  S
C906       C1495   1.407       .  A
C906        F910   1.356       .  S
C913        C914   1.411       .  A
C913        C918   1.410       .  A
C913        F931   1.358       .  S
C914        C915   1.412       .  A
C914        C919   1.511       .  S
C915        C916   1.410       .  A
C915        F920   1.357       .  S
C916        C917   1.410       .  A
C916        F932   1.357       .  S
C917        C918   1.412       .  A
C918        F921   1.358       .  S
C919        C922   1.415       .  A
C919        C926   1.411       .  A
C922        C923   1.412       .  A
C922        F927   1.357       .  S
C923        C924   1.405       .  A
C923        F929   1.357       .  S
C924        C925   1.408       .  A
C925        C926   1.407       .  A
C925        F928   1.356       .  S
C926        F930   1.356       .  S
C933        C934   1.408       .  A
C933        C938   1.391       .  A
C933        F951   1.357       .  S
C934       C1531   1.402       .  A
C934       C1535   1.470       .  S
C935        C936   1.391       .  A
C935        F940   1.357       .  S
C936        F952   1.359       .  S
C937       C1532   1.405       .  A
C937        C938   1.400       .  A
C938        F941   1.358       .  S
C939        C942   1.401       .  A
C942        C943   1.387       .  A
C942        F947   1.358       .  S
C943        F949   1.356       .  S
C944       C1539   1.403       .  A
C944        C945   1.397       .  A
C945        C946   1.398       .  A
C945        F948   1.356       .  S
C946       C1535   1.410       .  A
C946        F950   1.358       .  S
C953        C954   1.409       .  A
C953        C958   1.403       .  A
C953        F971   1.357   1_565  S
C954        C955   1.406       .  A
C954        C959   1.497       .  S
C955        C956   1.402       .  A
C955        F960   1.356       .  S
C956        C957   1.414       .  A
C956        F972   1.358       .  S
C957        C958   1.410       .  A
C958        F961   1.358   1_565  S
C959        C962   1.407       .  A
C959        C966   1.413       .  A
C962        C963   1.398       .  A
C962        F967   1.358   1_565  S
C963        C964   1.408       .  A
C963        F969   1.356   1_565  S
C964        C965   1.403       .  A
C965        C966   1.409       .  A
C965        F968   1.356       .  S
C966        F970   1.357       .  S
C973        C974   1.413   1_455  A
C973        C978   1.407       .  A
C973        F991   1.357       .  S
C974        C975   1.410       .  A
C974        C979   1.501       .  S
C975        C976   1.404       .  A
C975        F980   1.357       .  S
C976        C977   1.406       .  A
C976        F992   1.357       .  S
C977        C978   1.402   1_655  A
C978        F981   1.357       .  S
C979        C982   1.411       .  A
C979        C986   1.411       .  A
C982        C983   1.405       .  A
C982        F987   1.358   1_655  S
C983        C984   1.405       .  A
C983        F989   1.358   1_655  S
C984        C985   1.404       .  A
C985        C986   1.405       .  A
C985        F988   1.358       .  S
C986        F990   1.357       .  S
C993        C998   1.409       .  A
C993       F1011   1.357       .  S
C994       C1589   1.413       .  A
C994        C995   1.408       .  A
C994        C999   1.500       .  S
C995        C996   1.405       .  A
C995       F1000   1.356       .  S
C996       C1593   1.407       .  A
C996       F1012   1.357       .  S
C997        C998   1.401       .  A
C998       F1001   1.356       .  S
C999       C1002   1.406       .  A
C999       C1602   1.412       .  A
C1002      C1003   1.400       .  A
C1002      F1007   1.358   1_565  S
C1003      C1600   1.410       .  A
C1003      F1009   1.358       .  S
C1004      C1005   1.409       .  A
C1005      C1006   1.416       .  A
C1005      F1008   1.357       .  S
C1006      F1010   1.357       .  S
C1013      C1014   1.402       .  A
C1013      C1018   1.392       .  A
C1013      F1031   1.358       .  S
C1014      C1611   1.410       .  A
C1014      C1019   1.480       .  S
C1015      C1016   1.396       .  A
C1015      F1020   1.353   1_655  S
C1016      C1017   1.401       .  A
C1016      F1032   1.358   1_655  S
C1018      C1613   1.413       .  A
C1018      F1021   1.359       .  S
C1019      C1022   1.411       .  A
C1019      C1622   1.403       .  A
C1022      C1023   1.402       .  A
C1022      F1027   1.358       .  S
C1023      C1620   1.399       .  A
C1023      F1029   1.357       .  S
C1024      C1025   1.405       .  A
C1025      C1026   1.387       .  A
C1025      F1028   1.355   1_655  S
C1026      F1030   1.358   1_655  S
C1033      C1034   1.411       .  A
C1033      C1038   1.400       .  A
C1033      F1051   1.358       .  S
C1034      C1035   1.413       .  A
C1034      C1039   1.505       .  S
C1035      C1036   1.414       .  A
C1035      F1040   1.357       .  S
C1036      C1037   1.406       .  A
C1036      F1052   1.357       .  S
C1037      C1038   1.404       .  A
C1038      F1041   1.356       .  S
C1039      C1042   1.414       .  A
C1039      C1046   1.404       .  A
C1042      C1043   1.417       .  A
C1042      F1047   1.357       .  S
C1043      C1044   1.413       .  A
C1043      F1049   1.357       .  S
C1044      C1045   1.416       .  A
C1045      C1046   1.396       .  A
C1045      F1048   1.358       .  S
C1046      F1050   1.358       .  S
C1053      C1054   1.414       .  A
C1053      C1058   1.403       .  A
C1053      F1071   1.357       .  S
C1054      C1055   1.408       .  A
C1054      C1059   1.491       .  S
C1055      C1056   1.392       .  A
C1055      F1060   1.358       .  S
C1056      C1057   1.403       .  A
C1056      F1072   1.354       .  S
C1057      C1058   1.402       .  A
C1058      F1061   1.357       .  S
C1059      C1062   1.409       .  A
C1059      C1066   1.409       .  A
C1062      C1063   1.400       .  A
C1062      F1067   1.357   1_565  S
C1063      C1064   1.410       .  A
C1063      F1069   1.358   1_565  S
C1064      C1065   1.407       .  A
C1065      C1066   1.393       .  A
C1065      F1068   1.358       .  S
C1066      F1070   1.357       .  S
C1073      C1074   1.410       .  A
C1073      C1078   1.403       .  A
C1073      F1091   1.358       .  S
C1074      C1671   1.403       .  A
C1074      C1079   1.483       .  S
C1075      C1076   1.391       .  A
C1075      F1080   1.357       .  S
C1076      F1092   1.352       .  S
C1077      C1672   1.405       .  A
C1077      C1078   1.402       .  A
C1078      F1081   1.357       .  S
C1079      C1082   1.409       .  A
C1079      C1682   1.406       .  A
C1082      C1083   1.400       .  A
C1082      F1087   1.358       .  S
C1083      C1084   1.404       .  A
C1083      F1089   1.358       .  S
C1084      C1681   1.404       .  A
C1085      C1086   1.396       .  A
C1085      F1088   1.358       .  S
C1086      F1090   1.358       .  S
C1093      C1094   1.409       .  A
C1093      C1098   1.397       .  A
C1093      F1111   1.358       .  S
C1094      C1691   1.407       .  A
C1094      C1099   1.485       .  S
C1095      C1096   1.409       .  A
C1095      F1100   1.357       .  S
C1096      C1097   1.409       .  A
C1096      F1112   1.358       .  S
C1098      C1693   1.404       .  A
C1098      F1101   1.358       .  S
C1099      C1102   1.406       .  A
C1099      C1702   1.409       .  A
C1102      C1103   1.393       .  A
C1102      F1107   1.358       .  S
C1103      C1700   1.404       .  A
C1103      F1109   1.353       .  S
C1104      C1105   1.408       .  A
C1105      C1106   1.408       .  A
C1105      F1108   1.357       .  S
C1106      F1110   1.357       .  S
C1113      C1114   1.406       .  A
C1113      C1118   1.382       .  A
C1113      F1131   1.358       .  S
C1114      C1115   1.413       .  A
C1114      C1119   1.479       .  S
C1115      C1116   1.402       .  A
C1115      F1120   1.357   1_655  S
C1116      C1117   1.399       .  A
C1116      F1132   1.357       .  S
C1117      C1118   1.399       .  A
C1118      F1121   1.356       .  S
C1119      C1122   1.406       .  A
C1119      C1126   1.405       .  A
C1122      C1123   1.388       .  A
C1122      F1127   1.356       .  S
C1123      C1124   1.404       .  A
C1123      F1129   1.358       .  S
C1124      C1125   1.409       .  A
C1125      C1126   1.398       .  A
C1125      F1128   1.358       .  S
C1126      F1130   1.358       .  S
C1133      C1134   1.405       .  A
C1133      C1138   1.393       .  A
C1133      F1151   1.357       .  S
C1134      C1135   1.406       .  A
C1134      C1139   1.476       .  S
C1135      C1136   1.390       .  A
C1135      F1140   1.357       .  S
C1136      C1137   1.406       .  A
C1136      F1152   1.358       .  S
C1137      C1138   1.404       .  A
C1138      F1141   1.357       .  S
C1139      C1142   1.412       .  A
C1139      C1146   1.404       .  A
C1142      C1143   1.399       .  A
C1142      F1147   1.358       .  S
C1143      C1144   1.398       .  A
C1143      F1149   1.356       .  S
C1144      C1145   1.403       .  A
C1145      C1146   1.386       .  A
C1145      F1148   1.356       .  S
C1146      F1150   1.357       .  S
C1153      C1154   1.407       .  A
C1153      C1158   1.400       .  A
C1153      F1171   1.353       .  S
C1154      C1159   1.497       .  S
C1155      C1750   1.408       .  A
C1155      C1156   1.401       .  A
C1155      F1160   1.358       .  S
C1156      C1753   1.405       .  A
C1156      F1172   1.357       .  S
C1157      C1158   1.404       .  A
C1158      F1161   1.357       .  S
C1159      C1162   1.410       .  A
C1162      C1163   1.405       .  A
C1162      F1167   1.358       .  S
C1163      C1164   1.409       .  A
C1163      F1169   1.358       .  S
C1165      C1760   1.411       .  A
C1165      C1166   1.397       .  A
C1165      F1168   1.358       .  S
C1166      C1755   1.402       .  A
C1166      F1170   1.358       .  S
C1173      C1174   1.413       .  A
C1173      C1178   1.413       .  A
C1173      F1191   1.356       .  S
C1174      C1771   1.411       .  A
C1174      C1179   1.517       .  S
C1175      C1176   1.410       .  A
C1175      F1180   1.357       .  S
C1176      F1192   1.357       .  S
C1177      C1772   1.412       .  A
C1177      C1178   1.411       .  A
C1178      F1181   1.357       .  S
C1179      C1182   1.414       .  A
C1179      C1782   1.410       .  A
C1182      C1183   1.415       .  A
C1182      F1187   1.358       .  S
C1183      C1184   1.410       .  A
C1183      F1189   1.357       .  S
C1184      C1781   1.411       .  A
C1185      C1186   1.404       .  A
C1185      F1188   1.352       .  S
C1186      F1190   1.355       .  S
C1193      C1195   1.552       .  S
C1193      C1197   1.575       .  S
C1193      C1196   1.572       .  S
C1193      C1217   1.694       .  S
C1194      C1198   1.560       .  S
C1194      C1200   1.544       .  S
C1194      C1199   1.570       .  S
C1194      C1216   1.686       .  S
C1195      C1203   1.380       .  A
C1196      C1207   1.393       .  A
C1197      C1211   1.388       .  A
C1198      C1201   1.383       .  A
C1199      C1205   1.391       .  A
C1200      C1208   1.372       .  A
C1201      N1202   1.366       .  A
C1201      H1214   1.080       .  S
N1202      N1340   1.419       .  S
C1203      H1204   1.080       .  S
C1205      H1215   1.080       .  S
N1206      C1207   1.362       .  A
N1206      C1780   1.461       .  S
C1207      H1213   1.075       .  S
C1208      N1209   1.352       .  A
C1208      H1210   1.082       .  S
N1209      C1753   1.436       .  S
C1211      H1212   1.072       .  S
C1216      C1218   1.548       .  S
C1216      C1220   1.563       .  S
C1216      C1219   1.543       .  S
C1217      C1221   1.564       .  S
C1217      C1223   1.561       .  S
C1217      C1222   1.543       .  S
C1218      C1226   1.378       .  A
C1218      C1221   1.435       .  A
C1219      C1230   1.369       .  A
C1219      C1222   1.416       .  A
C1220      C1234   1.383       .  A
C1220      C1223   1.446       .  A
C1221      C1224   1.386       .  A
C1222      C1228   1.370       .  A
C1223      C1231   1.377       .  A
C1224      N1225   1.360       .  A
C1224      H1237   1.077       .  S
N1225      C1226   1.351       .  A
N1225      N1363   1.419       .  S
C1226      H1227   1.078       .  S
C1228      N1229   1.355       .  A
C1228      H1238   1.081       .  S
N1229      C1230   1.354       .  A
N1229      C1740   1.424       .  S
C1230      H1236   1.078       .  S
C1231      N1232   1.352       .  A
C1231      H1233   1.079       .  S
N1232      C1234   1.351       .  A
N1232      C1713   1.434       .  S
C1234      H1235   1.079       .  S
C1239      C1241   1.534       .  S
C1239      C1243   1.552       .  S
C1239      C1242   1.541       .  S
C1239      C1263   1.670       .  S
C1240      C1244   1.555       .  S
C1240      C1246   1.550       .  S
C1240      C1245   1.553       .  S
C1240      C1262   1.669       .  S
C1241      C1249   1.377       .  A
C1242      C1253   1.370       .  A
C1243      C1257   1.379       .  A
C1244      C1247   1.380       .  A
C1245      C1251   1.372       .  A
C1246      C1254   1.379       .  A
C1247      H1260   1.079       .  S
N1248      C1249   1.338       .  A
N1248      N1386   1.414       .  S
C1249      H1250   1.077       .  S
C1251      H1261   1.073       .  S
N1252      C1253   1.350       .  A
N1252      C1700   1.438       .  S
C1253      H1259   1.082       .  S
C1254      N1255   1.349       .  A
C1254      H1256   1.080       .  S
N1255      C1673   1.433       .  S
C1257      H1258   1.080       .  S
C1262      C1264   1.552       .  S
C1262      C1266   1.560       .  S
C1262      C1265   1.562       .  S
C1263      C1267   1.562       .  S
C1263      C1269   1.545       .  S
C1263      C1268   1.561       .  S
C1264      C1272   1.379       .  A
C1264      C1267   1.417       .  A
C1265      C1276   1.381       .  A
C1265      C1268   1.429       .  A
C1266      C1280   1.388       .  A
C1266      C1269   1.416       .  A
C1267      C1270   1.388       .  A
C1268      C1274   1.389       .  A
C1269      C1277   1.369       .  A
C1270      N1271   1.363       .  A
C1270      H1283   1.080       .  S
N1271      C1272   1.361       .  A
N1271      N1409   1.423       .  S
C1272      H1273   1.079       .  S
C1274      N1275   1.355       .  A
C1274      H1284   1.081       .  S
N1275      C1276   1.357       .  A
N1275      C1653   1.446       .  S
C1276      H1282   1.076       .  S
C1277      N1278   1.354       .  A
C1277      H1279   1.072       .  S
N1278      C1280   1.360       .  A
N1278      C1633   1.439       .  S
C1280      H1281   1.081       .  S
Zn1285     O1290   2.155       .  S
Zn1285     O1294   1.995       .  S
Zn1285     O1301   2.012       .  S
Zn1286     O1291   1.909   1_655  S
Zn1286     O1293   2.115   1_565  S
Zn1286     O1297   2.002   1_655  S
Zn1286     O1289   2.118       .  S
Zn1287     O1292   2.063       .  S
Zn1287     O1295   1.943       .  S
Zn1287     O1298   1.934       .  S
Zn1287     O1289   1.922       .  S
Zn1288     O1296   1.976       .  S
Zn1288     O1299   2.088   1_655  S
Zn1288     O1300   1.975       .  S
O1291      C1303   1.245   1_455  A
O1292      C1304   1.274       .  A
O1293      C1302   1.287       .  A
O1295      C1303   1.260       .  A
O1297      C1306   1.270       .  A
O1298      C1305   1.259       .  A
O1300      C1307   1.261       .  A
O1301      C1307   1.259       .  A
C1302      C1760   1.486       .  S
C1303      C1327   1.461       .  S
C1304      C1693   1.470       .  S
C1305      C1613   1.473       .  S
C1306      C1600   1.491       .  S
C1307      C1329   1.461       .  S
Zn1308     O1313   1.947       .  S
Zn1308     O1317   1.977       .  S
Zn1308     O1324   2.037   1_645  S
Zn1308     O1312   2.008   1_545  S
Zn1309     O1314   2.089       .  S
Zn1309     O1316   2.039   1_565  S
Zn1309     O1320   1.985       .  S
Zn1309     O1312   1.940       .  S
Zn1310     O1315   2.015       .  S
Zn1310     O1318   2.021       .  S
Zn1310     O1321   2.152       .  S
Zn1310     O1312   1.973       .  S
Zn1311     O1319   2.061       .  S
Zn1311     O1322   1.914   1_655  S
Zn1311     O1323   1.984   1_655  S
Zn1311     O1312   2.090       .  S
O1313      C1325   1.256       .  A
O1314      C1326   1.277       .  A
O1315      C1327   1.262       .  A
O1316      C1325   1.266       .  A
O1317      C1327   1.268   1_545  A
O1318      C1326   1.271       .  A
O1319      C1328   1.277       .  A
O1320      C1329   1.266       .  A
O1321      C1328   1.289       .  A
O1322      C1329   1.250   1_455  A
O1323      C1330   1.267       .  A
O1324      C1330   1.271       .  A
C1325      C1720   1.464       .  S
C1326      C1660   1.493       .  S
C1328      C1580   1.493       .  S
C1330      C1553   1.469       .  S
C1331      C1333   1.563       .  S
C1331      C1335   1.552   1_455  S
C1331      C1334   1.536       .  S
C1331      C1355   1.681       .  S
C1332      C1336   1.550       .  S
C1332      C1338   1.562   1_455  S
C1332      C1337   1.543       .  S
C1332      C1354   1.685       .  S
C1333      C1341   1.386   1_455  A
C1334      C1345   1.370       .  A
C1335      C1349   1.372       .  A
C1336      C1339   1.378   1_455  A
C1337      C1343   1.370       .  A
C1338      C1346   1.380       .  A
C1339      N1340   1.351       .  A
C1339      H1352   1.077       .  S
C1341      H1342   1.078       .  S
C1343      H1353   1.080       .  S
N1344      C1345   1.350   1_554  A
N1344      C1540   1.426       .  S
C1345      H1351   1.080       .  S
C1346      N1347   1.353       .  A
C1346      H1348   1.079       .  S
N1347      C1620   1.432       .  S
C1349      H1350   1.081       .  S
C1354      C1356   1.556   1_455  S
C1354      C1358   1.550       .  S
C1354      C1357   1.564       .  S
C1355      C1359   1.548   1_455  S
C1355      C1361   1.568       .  S
C1355      C1360   1.575       .  S
C1356      C1364   1.382       .  A
C1356      C1359   1.415       .  A
C1357      C1368   1.385       .  A
C1357      C1360   1.430       .  A
C1358      C1372   1.371       .  A
C1358      C1361   1.422       .  A
C1359      C1362   1.377       .  A
C1360      C1366   1.398       .  A
C1361      C1369   1.393       .  A
C1362      N1363   1.358       .  A
C1362      H1375   1.079       .  S
N1363      C1364   1.366       .  A
C1364      H1365   1.080       .  S
C1366      N1367   1.364       .  A
C1366      H1376   1.081       .  S
N1367      C1368   1.357       .  A
N1367      C1520   1.455       .  S
C1368      H1374   1.076       .  S
C1369      N1370   1.363       .  A
C1369      H1371   1.080       .  S
N1370      C1372   1.351       .  A
N1370      C1573   1.443   1_455  S
C1372      H1373   1.073       .  S
C1377      C1379   1.537       .  S
C1377      C1381   1.535       .  S
C1377      C1380   1.574   1_545  S
C1377      C1401   1.659       .  S
C1378      C1382   1.546       .  S
C1378      C1384   1.536       .  S
C1378      C1383   1.547   1_545  S
C1378      C1400   1.636       .  S
C1379      C1387   1.388   1_545  A
C1380      C1391   1.386       .  A
C1381      C1395   1.356       .  A
C1382      C1385   1.379   1_545  A
C1383      C1389   1.384       .  A
C1384      C1392   1.375       .  A
C1385      H1398   1.079       .  S
N1386      C1387   1.351       .  A
C1387      H1388   1.081       .  S
C1389      H1399   1.082       .  S
N1390      C1391   1.355       .  A
N1390      C1593   1.443       .  S
C1391      H1397   1.070       .  S
C1392      N1393   1.349       .  A
C1392      H1394   1.081       .  S
N1393      C1500   1.434   1_556  S
C1395      H1396   1.072       .  S
C1400      C1402   1.543   1_545  S
C1400      C1404   1.554       .  S
C1400      C1403   1.538       .  S
C1401      C1405   1.564   1_545  S
C1401      C1407   1.583       .  S
C1401      C1406   1.544       .  S
C1402      C1410   1.379       .  A
C1402      C1405   1.411       .  A
C1403      C1414   1.374       .  A
C1403      C1406   1.408       .  A
C1404      C1418   1.388       .  A
C1404      C1407   1.429       .  A
C1405      C1408   1.390       .  A
C1406      C1412   1.373       .  A
C1407      C1415   1.396       .  A
C1408      N1409   1.362       .  A
C1408      H1421   1.078       .  S
N1409      C1410   1.359       .  A
C1410      H1411   1.079       .  S
C1412      N1413   1.355       .  A
C1412      H1422   1.079       .  S
N1413      C1414   1.350       .  A
N1413      C1560   1.425       .  S
C1414      H1420   1.082       .  S
C1415      N1416   1.363       .  A
C1415      H1417   1.075       .  S
N1416      C1418   1.354       .  A
N1416      C1480   1.458       .  S
C1418      H1419   1.081       .  S
Zn1423     O1428   2.012       .  S
Zn1423     O1432   1.967   1_556  S
Zn1423     O1439   1.950       .  S
Zn1423     O1427   1.977       .  S
Zn1424     O1429   1.980       .  S
Zn1424     O1431   2.023       .  S
Zn1424     O1435   2.106       .  S
Zn1425     O1430   2.002       .  S
Zn1425     O1433   1.932       .  S
Zn1425     O1436   2.027       .  S
Zn1426     O1434   2.029       .  S
Zn1426     O1437   2.115       .  S
Zn1426     O1438   1.988       .  S
Zn1426     O1427   1.954       .  S
O1428      C1440   1.268       .  A
O1429      C1441   1.261       .  A
O1432      C1442   1.259   1_554  A
O1433      C1441   1.259       .  A
O1434      C1443   1.273   1_556  A
O1437      C1444   1.286       .  A
O1438      C1445   1.265       .  A
O1439      C1445   1.267       .  A
C1440      C1680   1.465       .  S
C1441      C1468   1.460       .  S
C1442      C1533   1.470   1_556  S
C1443      C1493   1.485       .  S
C1444      C1773   1.507       .  S
C1445      C1464   1.471       .  S
Zn1446     O1451   1.983       .  S
Zn1446     O1455   2.147       .  S
Zn1446     O1462   2.016       .  S
Zn1446     O1450   1.993       .  S
Zn1447     O1452   2.009       .  S
Zn1447     O1454   1.972       .  S
Zn1447     O1458   2.130       .  S
Zn1447     O1450   1.959       .  S
Zn1448     O1453   1.998       .  S
Zn1448     O1456   1.979       .  S
Zn1448     O1459   2.156       .  S
Zn1448     O1450   2.124       .  S
Zn1449     O1457   2.139       .  S
Zn1449     O1460   2.015       .  S
Zn1449     O1461   1.949       .  S
Zn1449     O1450   2.102       .  S
O1451      C1463   1.267       .  A
O1452      C1464   1.266       .  A
O1453      C1465   1.270       .  A
O1454      C1463   1.266       .  A
O1455      C1465   1.287       .  A
O1456      C1464   1.252       .  A
O1457      C1466   1.290       .  A
O1458      C1467   1.284       .  A
O1459      C1466   1.292       .  A
O1460      C1467   1.271       .  A
O1461      C1468   1.254       .  A
O1462      C1468   1.263       .  A
C1463      C1733   1.463       .  S
C1465      C1640   1.501       .  S
C1466      C1513   1.509       .  S
C1467      C1473   1.503       .  S
C1469      C1470   1.412       .  A
C1469      C1474   1.404       .  A
C1469      F1487   1.358       .  S
C1470      C1471   1.414       .  A
C1470      C1475   1.514       .  S
C1471      C1472   1.416       .  A
C1471      F1476   1.357       .  S
C1472      C1473   1.413       .  A
C1472      F1488   1.358       .  S
C1473      C1474   1.408       .  A
C1474      F1477   1.358       .  S
C1475      C1478   1.409       .  A
C1475      C1482   1.416       .  A
C1478      C1479   1.400       .  A
C1478      F1483   1.358       .  S
C1479      C1480   1.406       .  A
C1479      F1485   1.348       .  S
C1480      C1481   1.411       .  A
C1481      C1482   1.417       .  A
C1481      F1484   1.357       .  S
C1482      F1486   1.357       .  S
C1489      C1494   1.388       .  A
C1489      F1507   1.358       .  S
C1490      C1491   1.404       .  A
C1491      C1492   1.396       .  A
C1491      F1496   1.358       .  S
C1492      C1493   1.411       .  A
C1492      F1508   1.358       .  S
C1494      F1497   1.358       .  S
C1495      C1498   1.408       .  A
C1498      C1499   1.393       .  A
C1498      F1503   1.358       .  S
C1499      F1505   1.356       .  S
C1500      C1501   1.400   1_554  A
C1501      C1502   1.401       .  A
C1501      F1504   1.357       .  S
C1502      F1506   1.357       .  S
C1509      C1510   1.414       .  A
C1509      C1514   1.412       .  A
C1509      F1527   1.357       .  S
C1510      C1511   1.415       .  A
C1510      C1515   1.522       .  S
C1511      C1512   1.413       .  A
C1511      F1516   1.357       .  S
C1512      C1513   1.411       .  A
C1512      F1528   1.358       .  S
C1513      C1514   1.411       .  A
C1514      F1517   1.358       .  S
C1515      C1518   1.417       .  A
C1515      C1522   1.415       .  A
C1518      C1519   1.415       .  A
C1518      F1523   1.357       .  S
C1519      C1520   1.406       .  A
C1519      F1525   1.357       .  S
C1520      C1521   1.406       .  A
C1521      C1522   1.410       .  A
C1521      F1524   1.357       .  S
C1522      F1526   1.355       .  S
C1529      C1530   1.407   1_556  A
C1529      C1534   1.394       .  A
C1529      F1547   1.357       .  S
C1531      C1532   1.389       .  A
C1531      F1536   1.356       .  S
C1532      F1548   1.358       .  S
C1533      C1534   1.405   1_554  A
C1534      F1537   1.358       .  S
C1535      C1538   1.402       .  A
C1538      C1539   1.386       .  A
C1538      F1543   1.359       .  S
C1539      F1545   1.357       .  S
C1540      C1541   1.399       .  A
C1541      C1542   1.399       .  A
C1541      F1544   1.357   1_554  S
C1542      F1546   1.358   1_554  S
C1549      C1550   1.405   1_545  A
C1549      C1554   1.394       .  A
C1549      F1567   1.358       .  S
C1550      C1551   1.406       .  A
C1550      C1555   1.474   1_565  S
C1551      C1552   1.390       .  A
C1551      F1556   1.358       .  S
C1552      C1553   1.406       .  A
C1552      F1568   1.358       .  S
C1553      C1554   1.406   1_565  A
C1554      F1557   1.358       .  S
C1555      C1558   1.411       .  A
C1555      C1562   1.403   1_545  A
C1558      C1559   1.398       .  A
C1558      F1563   1.358       .  S
C1559      C1560   1.396       .  A
C1559      F1565   1.357       .  S
C1560      C1561   1.402   1_545  A
C1561      C1562   1.387       .  A
C1561      F1564   1.354       .  S
C1562      F1566   1.358       .  S
C1569      C1570   1.413   1_455  A
C1569      C1574   1.408       .  A
C1569      F1587   1.357       .  S
C1570      C1571   1.409       .  A
C1570      C1575   1.502       .  S
C1571      C1572   1.404       .  A
C1571      F1576   1.356       .  S
C1572      C1573   1.407       .  A
C1572      F1588   1.357       .  S
C1573      C1574   1.402   1_655  A
C1574      F1577   1.357       .  S
C1575      C1578   1.410       .  A
C1575      C1582   1.410       .  A
C1578      C1579   1.407       .  A
C1578      F1583   1.358   1_655  S
C1579      C1580   1.409       .  A
C1579      F1585   1.358   1_655  S
C1580      C1581   1.407       .  A
C1581      C1582   1.407       .  A
C1581      F1584   1.357       .  S
C1582      F1586   1.358       .  S
C1589      C1594   1.405       .  A
C1589      F1607   1.356   1_565  S
C1590      C1591   1.414       .  A
C1590      C1595   1.497       .  S
C1591      C1592   1.409       .  A
C1591      F1596   1.357       .  S
C1592      F1608   1.357       .  S
C1593      C1594   1.401       .  A
C1594      F1597   1.356   1_565  S
C1595      C1598   1.411       .  A
C1598      C1599   1.397       .  A
C1598      F1603   1.358       .  S
C1599      F1605   1.358       .  S
C1600      C1601   1.408       .  A
C1601      C1602   1.411       .  A
C1601      F1604   1.357       .  S
C1602      F1606   1.357       .  S
C1609      C1610   1.398       .  A
C1609      C1614   1.388       .  A
C1609      F1627   1.357       .  S
C1610      C1615   1.465       .  S
C1611      C1612   1.398       .  A
C1611      F1616   1.356       .  S
C1612      C1613   1.401       .  A
C1612      F1628   1.357       .  S
C1614      F1617   1.358       .  S
C1615      C1618   1.410       .  A
C1618      C1619   1.400       .  A
C1618      F1623   1.357   1_554  S
C1619      F1625   1.357   1_554  S
C1620      C1621   1.405       .  A
C1621      C1622   1.390       .  A
C1621      F1624   1.355   1_655  S
C1622      F1626   1.358   1_655  S
C1629      C1630   1.410       .  A
C1629      C1634   1.399       .  A
C1629      F1647   1.358       .  S
C1630      C1631   1.411       .  A
C1630      C1635   1.496       .  S
C1631      C1632   1.408       .  A
C1631      F1636   1.357       .  S
C1632      C1633   1.403       .  A
C1632      F1648   1.357       .  S
C1633      C1634   1.403       .  A
C1634      F1637   1.357       .  S
C1635      C1638   1.412       .  A
C1635      C1642   1.401       .  A
C1638      C1639   1.413       .  A
C1638      F1643   1.357       .  S
C1639      C1640   1.411       .  A
C1639      F1645   1.357       .  S
C1640      C1641   1.417       .  A
C1641      C1642   1.395       .  A
C1641      F1644   1.358       .  S
C1642      F1646   1.358       .  S
C1649      C1650   1.417       .  A
C1649      C1654   1.411       .  A
C1649      F1667   1.357       .  S
C1650      C1651   1.411       .  A
C1650      C1655   1.509       .  S
C1651      C1652   1.399       .  A
C1651      F1656   1.357       .  S
C1652      C1653   1.403       .  A
C1652      F1668   1.354       .  S
C1653      C1654   1.403       .  A
C1654      F1657   1.357       .  S
C1655      C1658   1.414       .  A
C1655      C1662   1.412       .  A
C1658      C1659   1.409       .  A
C1658      F1663   1.357       .  S
C1659      C1660   1.408       .  A
C1659      F1665   1.357       .  S
C1660      C1661   1.407       .  A
C1661      C1662   1.400       .  A
C1661      F1664   1.358       .  S
C1662      F1666   1.354       .  S
C1669      C1670   1.409       .  A
C1669      C1674   1.399       .  A
C1669      F1687   1.358       .  S
C1670      C1675   1.480       .  S
C1671      C1672   1.392       .  A
C1671      F1676   1.357       .  S
C1672      F1688   1.351       .  S
C1673      C1674   1.399       .  A
C1674      F1677   1.357       .  S
C1675      C1678   1.408       .  A
C1678      C1679   1.398       .  A
C1678      F1683   1.358       .  S
C1679      C1680   1.403       .  A
C1679      F1685   1.358       .  S
C1681      C1682   1.396       .  A
C1681      F1684   1.358       .  S
C1682      F1686   1.358       .  S
C1689      C1690   1.411       .  A
C1689      C1694   1.397       .  A
C1689      F1707   1.358       .  S
C1690      C1695   1.488       .  S
C1691      C1692   1.398       .  A
C1691      F1696   1.357       .  S
C1692      C1693   1.405       .  A
C1692      F1708   1.358       .  S
C1694      F1697   1.358       .  S
C1695      C1698   1.409   1_554  A
C1698      C1699   1.394       .  A
C1698      F1703   1.357       .  S
C1699      F1705   1.354       .  S
C1700      C1701   1.406       .  A
C1701      C1702   1.400       .  A
C1701      F1704   1.357       .  S
C1702      F1706   1.357       .  S
C1709      C1710   1.406       .  A
C1709      C1714   1.392       .  A
C1709      F1727   1.358       .  S
C1710      C1711   1.413       .  A
C1710      C1715   1.486       .  S
C1711      C1712   1.402       .  A
C1711      F1716   1.358       .  S
C1712      C1713   1.399       .  A
C1712      F1728   1.356       .  S
C1713      C1714   1.404       .  A
C1714      F1717   1.356       .  S
C1715      C1718   1.411       .  A
C1715      C1722   1.408       .  A
C1718      C1719   1.398       .  A
C1718      F1723   1.357       .  S
C1719      C1720   1.403       .  A
C1719      F1725   1.358       .  S
C1720      C1721   1.402       .  A
C1721      C1722   1.392       .  A
C1721      F1724   1.358       .  S
C1722      F1726   1.357       .  S
C1729      C1730   1.404       .  A
C1729      C1734   1.391       .  A
C1729      F1747   1.357       .  S
C1730      C1731   1.410       .  A
C1730      C1735   1.477       .  S
C1731      C1732   1.392       .  A
C1731      F1736   1.357       .  S
C1732      C1733   1.401       .  A
C1732      F1748   1.357       .  S
C1733      C1734   1.406       .  A
C1734      F1737   1.358       .  S
C1735      C1738   1.414       .  A
C1735      C1742   1.404       .  A
C1738      C1739   1.399       .  A
C1738      F1743   1.357       .  S
C1739      C1740   1.396       .  A
C1739      F1745   1.357       .  S
C1740      C1741   1.402       .  A
C1741      C1742   1.384       .  A
C1741      F1744   1.357       .  S
C1742      F1746   1.357       .  S
C1749      C1750   1.405       .  A
C1749      C1754   1.399       .  A
C1749      F1767   1.356       .  S
C1750      C1755   1.483       .  S
C1751      C1752   1.414       .  A
C1751      F1756   1.357       .  S
C1752      F1768   1.357       .  S
C1753      C1754   1.405       .  A
C1754      F1757   1.356       .  S
C1755      C1758   1.408       .  A
C1758      C1759   1.404       .  A
C1758      F1763   1.358       .  S
C1759      C1760   1.409       .  A
C1759      F1765   1.358       .  S
C1761      C1762   1.415       .  A
C1761      F1764   1.357       .  S
C1762      F1766   1.357       .  S
C1769      C1770   1.412       .  A
C1769      C1774   1.409       .  A
C1769      F1787   1.356       .  S
C1770      C1775   1.514       .  S
C1771      C1772   1.410       .  A
C1771      F1776   1.357       .  S
C1772      F1788   1.357       .  S
C1773      C1774   1.409       .  A
C1774      F1777   1.358       .  S
C1775      C1778   1.414       .  A
C1778      C1779   1.417       .  A
C1778      F1783   1.358       .  S
C1779      C1780   1.411       .  A
C1779      F1785   1.357       .  S
C1781      C1782   1.408       .  A
C1781      F1784   1.353       .  S
C1782      F1786   1.356       .  S
