geometry optimzed in LAMMPS
_audit_creation_date              2020-11-30 
_audit_creation_method            'lammps2cif' 
_symmetry_space_group_name_H-M    'P1' 
_symmetry_Int_Tables_number       1 
_symmetry_cell_setting            triclinic 
loop_ 
_symmetry_equiv_pos_as_xyz 
  x,y,z 
_cell_length_a                    47.34978679 
_cell_length_b                    47.394205761295645 
_cell_length_c                    34.17705623314064 
_cell_angle_alpha                 89.56593190972792 
_cell_angle_beta                  90.34217616801241 
_cell_angle_gamma                 90.258522062071 
loop_ 
_atom_site_label 
_atom_site_type_symbol 
_atom_site_fract_x 
_atom_site_fract_y 
_atom_site_fract_z 
_atom_site_charge 
C1          C  0.17888669  0.49496218  0.16695911     0.03100
C2          C  0.16421982  0.49634929  0.20255967    -0.13100
C3          C  0.13427347  0.99445682  0.20317313     0.00600
C4          C  0.11925280  0.99422147  0.16775766    -0.11600
C5          C  0.13372292  0.99387774  0.13215015     0.03100
C6          C  0.16365071  0.49563770  0.13157853    -0.11000
H7          H  0.17576989  0.49587393  0.23003355     0.08700
H8          H  0.09635726  0.99474858  0.16789416     0.06200
H9          H  0.17473713  0.49522765  0.10394450     0.06000
C10         C  0.39179038  0.49758929  0.16370468     0.03100
C11         C  0.40672294  0.49670187  0.12838659    -0.13100
C12         C  0.43625903  0.49514964  0.12870054     0.00600
C13         C  0.45101623  0.49447374  0.16432805    -0.11600
C14         C  0.43632437  0.49566912  0.19969330     0.03100
C15         C  0.40677975  0.49718880  0.19935139    -0.11000
H16         H  0.39541178  0.49672047  0.10072756     0.08700
H17         H  0.47389991  0.49365196  0.16450896     0.06200
H18         H  0.39544567  0.49803253  0.22677572     0.06000
C19         C  0.03377118  0.14462385  0.16503544     0.03100
C20         C  0.03567587  0.12953538  0.12986894    -0.13100
C21         C  0.04066225  0.10041441  0.13033983     0.00600
C22         C  0.04370978  0.08614037  0.16613856    -0.11600
C23         C  0.04109026  0.10078769  0.20139251     0.03100
C24         C  0.03615172  0.12995996  0.20081136    -0.11000
H25         H  0.03329197  0.14047726  0.10209412     0.08700
H26         H  0.04683463  0.06348883  0.16657486     0.06200
H27         H  0.03468600  0.14123918  0.22818097     0.06000
C28         C  0.03221142  0.35740375  0.16724028     0.03100
C29         C  0.03242141  0.37240022  0.20260802    -0.13100
C30         C  0.03245953  0.40199968  0.20230523     0.00600
C31         C  0.03220613  0.41673121  0.16662454    -0.11600
C32         C  0.03194486  0.40200931  0.13126526     0.03100
C33         C  0.03190988  0.37245425  0.13160677    -0.11000
H34         H  0.03207600  0.36111711  0.23029729     0.08700
H35         H  0.03233350  0.43961161  0.16637704     0.06200
H36         H  0.03184854  0.36116945  0.10414097     0.06000
N37         N  0.09640511  0.01071670  0.04581707    -0.06200
N38         N  0.11114801  0.01932692  0.07643254    -0.58300
N39         N  0.09570383  0.48579702  0.28852478    -0.05800
N40         N  0.10965616  0.47561134  0.25846854    -0.60400
N41         N  0.09689030  0.01094949  0.28872698    -0.05400
N42         N  0.11196057  0.01968793  0.25852818    -0.58300
N43         N  0.09526360  0.48553127  0.04548210    -0.05100
N44         N  0.10894560  0.47518894  0.07611645    -0.60800
C45         C  0.11834128  0.49844102  0.09481827     0.96000
C46         C  0.11892407  0.99550947  0.24027457     0.95800
N47         N  0.01947879  0.44113190  0.28747882    -0.06400
N48         N  0.00937513  0.42722575  0.25706272    -0.58900
N49         N  0.04698259  0.44007517  0.04500849    -0.04500
N50         N  0.05625795  0.42565051  0.07565572    -0.60100
N51         N  0.01920349  0.44088326  0.04473612    -0.06400
N52         N  0.00897339  0.42703266  0.07525674    -0.59100
N53         N  0.04726047  0.44029893  0.28793757    -0.04100
N54         N  0.05665845  0.42577062  0.25790271    -0.60200
Mn55       Mn  0.07199137  0.46220672  0.33339539     1.18400
C56         C  0.03279867  0.41766719  0.23914120     0.98100
C57         C  0.03233690  0.41757694  0.09403415     0.98800
N58         N  0.05339378  0.06102291  0.28744971    -0.06400
N59         N  0.06392328  0.07446342  0.25672735    -0.62700
N60         N  0.02542373  0.06290328  0.04426070    -0.05200
N61         N  0.01640160  0.07778824  0.07413612    -0.63400
N62         N  0.05312192  0.06077724  0.04520496    -0.05900
N63         N  0.06352620  0.07398999  0.07608831    -0.63000
N64         N  0.02568618  0.06308539  0.28761738    -0.04800
N65         N  0.01677641  0.07813236  0.25740364    -0.63700
Mn66       Mn  0.07578739  0.03658745  0.33345480     1.10700
C67         C  0.04079557  0.08515718  0.23857830     0.99300
C68         C  0.04034885  0.08457934  0.09359869     0.99400
N69         N  0.47554716  0.48343740  0.04330522    -0.05900
N70         N  0.46223093  0.47278321  0.07394870    -0.61300
N71         N  0.47481133  0.01725545  0.28583547    -0.05200
N72         N  0.46095430  0.02744997  0.25522689    -0.58000
N73         N  0.47580123  0.48378183  0.28591713    -0.06500
N74         N  0.46246218  0.47327066  0.25519587    -0.60900
N75         N  0.47455109  0.01699747  0.04287424    -0.05500
N76         N  0.46078951  0.02709973  0.07313060    -0.58000
Mn77       Mn  0.49991386  0.46108158  0.33170418     1.20200
Mn78       Mn  0.49796428  0.04072264  0.99805834     1.10100
Cl79       Cl  0.03500038  0.00129960  0.33301715    -0.86000
C80         C  0.45182092  0.49581709  0.09187294     0.96300
C81         C  0.45151607  0.00410094  0.23674328     0.96100
C82         C  0.00983913  0.22008065  0.18413318    -0.14400
C83         C  0.02936807  0.23541424  0.16171654     0.16000
C84         C  0.04963596  0.22086290  0.13981830     0.02300
C85         C  0.05054575  0.19139217  0.14127816    -0.12900
C86         C  0.03125254  0.17585909  0.16396276    -0.04000
C87         C  0.01049254  0.19048487  0.18528738     0.01500
C88         C  0.02954412  0.26658637  0.16331388     0.08300
N89         N  0.06905058  0.23577295  0.11531887     0.64700
H90         H  0.06659843  0.18053940  0.12465213     0.17600
N91         N  0.49006349  0.17888901  0.20767564     0.75200
H92         H  0.49759922  0.23406884  0.20126967     0.09100
C93         C  0.00933746  0.28282334  0.14301005     0.02800
C94         C  0.01037000  0.31231268  0.14505105    -0.05900
C95         C  0.03137929  0.32607613  0.16708168    -0.24300
C96         C  0.05147969  0.30968489  0.18770083     0.12100
C97         C  0.05036370  0.28018732  0.18565523    -0.13400
N98         N  0.98828139  0.26967256  0.11915659     0.63700
H99         H  0.99473765  0.32457959  0.12908277     0.11600
N100        N  0.07400916  0.32264067  0.20909781     0.60400
H101        H  0.06608808  0.26777559  0.20123609     0.07800
O102        O  0.46663411  0.17347444  0.19156602    -0.41100
O103        O  0.49190642  0.17841949  0.24452525    -0.40300
O104        O  0.09470845  0.23747182  0.12522748    -0.40200
O105        O  0.06182954  0.24211098  0.08077033    -0.38000
O106        O  0.09684464  0.32835287  0.19186382    -0.38900
O107        O  0.07340226  0.32257275  0.24600600    -0.35000
O108        O  0.46857632  0.27090114  0.12848447    -0.36400
O109        O  0.99327619  0.26541263  0.08346842    -0.40700
C110        C  0.25509565  0.47375911  0.14866820    -0.14400
C111        C  0.26977514  0.49526515  0.16818265     0.16000
C112        C  0.25331457  0.01795958  0.18728635     0.02300
C113        C  0.22380405  0.01626088  0.18662843    -0.12900
C114        C  0.21017203  0.49453220  0.16689612    -0.04000
C115        C  0.22551283  0.47321000  0.14785847     0.01500
C116        C  0.30061085  0.99905403  0.16718726     0.08300
N117        N  0.26669355  0.04030077  0.20835398     0.64700
H118        H  0.21166246  0.03229424  0.20143592     0.17600
N119        N  0.21141203  0.45034126  0.12885524     0.75200
H120        H  0.26670498  0.45733686  0.13385033     0.09100
C121        C  0.31709130  0.47431737  0.18528340     0.02800
C122        C  0.34658145  0.47539516  0.18375379    -0.05900
C123        C  0.36052675  0.49728653  0.16377626    -0.24300
C124        C  0.34304158  0.02315084  0.14414928     0.12100
C125        C  0.31356348  0.02115707  0.14641633    -0.13400
N126        N  0.30375887  0.45154582  0.20574384     0.63700
H127        H  0.35872451  0.45890831  0.19816057     0.11600
N128        N  0.35534035  0.04603384  0.12266389     0.60400
H129        H  0.30063787  0.03687749  0.13157254     0.07800
O130        O  0.20708618  0.42770865  0.14759343    -0.41100
O131        O  0.20928440  0.45039390  0.09203380    -0.40300
O132        O  0.26598534  0.06512331  0.19478609    -0.40200
O133        O  0.27424379  0.03623066  0.24340339    -0.38000
O134        O  0.35706989  0.04444451  0.08591356    -0.38900
O135        O  0.35812836  0.06973582  0.13882617    -0.35000
O136        O  0.30290723  0.42740722  0.19044171    -0.36400
O137        O  0.29815381  0.45413506  0.24157405    -0.40700
C138        C  0.17888667  0.49496206  0.50029225     0.03100
C139        C  0.16421984  0.49634925  0.53589284    -0.13100
C140        C  0.13427347  0.99445700  0.53650642     0.00600
C141        C  0.11925279  0.99422166  0.50109095    -0.11600
C142        C  0.13372292  0.99387779  0.46548343     0.03100
C143        C  0.16365066  0.49563762  0.46491170    -0.11000
H144        H  0.17576994  0.49587385  0.56336671     0.08700
H145        H  0.09635727  0.99474886  0.50122745     0.06200
H146        H  0.17473705  0.49522751  0.43727765     0.06000
C147        C  0.39179037  0.49758956  0.49703813     0.03100
C148        C  0.40672290  0.49670218  0.46172000    -0.13100
C149        C  0.43625898  0.49514986  0.46203393     0.00600
C150        C  0.45101621  0.49447391  0.49766141    -0.11600
C151        C  0.43632438  0.49566929  0.53302669     0.03100
C152        C  0.40677975  0.49718901  0.53268482    -0.11000
H153        H  0.39541172  0.49672085  0.43406103     0.08700
H154        H  0.47389989  0.49365207  0.49784229     0.06200
H155        H  0.39544567  0.49803270  0.56010917     0.06000
C156        C  0.03377144  0.14462393  0.49836863     0.03100
C157        C  0.03567606  0.12953540  0.46320218    -0.13100
C158        C  0.04066233  0.10041442  0.46367313     0.00600
C159        C  0.04370982  0.08614040  0.49947190    -0.11600
C160        C  0.04109038  0.10078779  0.53472581     0.03100
C161        C  0.03615196  0.12996007  0.53414459    -0.11000
H162        H  0.03329217  0.14047725  0.43542733     0.08700
H163        H  0.04683458  0.06348886  0.49990825     0.06200
H164        H  0.03468629  0.14123934  0.56151417     0.06000
C165        C  0.03221174  0.35740383  0.50057367     0.03100
C166        C  0.03242168  0.37240030  0.53594143    -0.13100
C167        C  0.03245975  0.40199977  0.53563863     0.00600
C168        C  0.03220626  0.41673130  0.49995796    -0.11600
C169        C  0.03194500  0.40200940  0.46459868     0.03100
C170        C  0.03191016  0.37245435  0.46494018    -0.11000
H171        H  0.03207624  0.36111721  0.56363068     0.08700
H172        H  0.03233357  0.43961168  0.49971046     0.06200
H173        H  0.03184886  0.36116956  0.43747434     0.06000
N174        N  0.09640509  0.01071672  0.37915036    -0.06200
N175        N  0.11114800  0.01932694  0.40976581    -0.58300
N176        N  0.09570399  0.48579720  0.62185813    -0.05800
N177        N  0.10965628  0.47561151  0.59180186    -0.60400
N178        N  0.09689040  0.01094968  0.62206036    -0.05400
N179        N  0.11196061  0.01968813  0.59186151    -0.58300
N180        N  0.09526349  0.48553133  0.37881540    -0.05100
N181        N  0.10894554  0.47518902  0.40944971    -0.60800
C182        C  0.11834120  0.49844110  0.42815154     0.96000
C183        C  0.11892409  0.99550967  0.57360787     0.95800
N184        N  0.01947898  0.44113208  0.62081211    -0.06400
N185        N  0.00937533  0.42722589  0.59039604    -0.58900
N186        N  0.04698252  0.44007525  0.37834186    -0.04500
N187        N  0.05625795  0.42565061  0.40898906    -0.60100
N188        N  0.01920343  0.44088334  0.37806959    -0.06400
N189        N  0.00897339  0.42703275  0.40859026    -0.59100
N190        N  0.04726066  0.44029909  0.62127089    -0.04100
N191        N  0.05665865  0.42577073  0.59123609    -0.60200
Mn192      Mn  0.07199154  0.46220689  0.66672872     1.18400
C193        C  0.03279887  0.41766729  0.57247458     0.98100
C194        C  0.03233694  0.41757704  0.42736758     0.98800
N195        N  0.05339387  0.06102309  0.62078313    -0.06400
N196        N  0.06392338  0.07446359  0.59006077    -0.62700
N197        N  0.02542375  0.06290334  0.37759396    -0.05200
N198        N  0.01640163  0.07778828  0.40746943    -0.63400
N199        N  0.05312193  0.06077727  0.37853823    -0.05900
N200        N  0.06352623  0.07398997  0.40942160    -0.63000
N201        N  0.02568627  0.06308555  0.62095076    -0.04800
N202        N  0.01677650  0.07813249  0.59073699    -0.63700
Mn203      Mn  0.07578748  0.03658761  0.66678823     1.10700
C204        C  0.04079568  0.08515732  0.57191167     0.99300
C205        C  0.04034889  0.08457933  0.42693202     0.99400
N206        N  0.47554712  0.48343749  0.37663865    -0.05900
N207        N  0.46223088  0.47278334  0.40728215    -0.61300
N208        N  0.47481144  0.01725558  0.61916876    -0.05200
N209        N  0.46095435  0.02745011  0.58856024    -0.58000
N210        N  0.47580135  0.48378199  0.61925041    -0.06500
N211        N  0.46246226  0.47327082  0.58852919    -0.60900
N212        N  0.47455109  0.01699760  0.37620758    -0.05500
N213        N  0.46078952  0.02709991  0.40646391    -0.58000
Mn214      Mn  0.49991399  0.46108172  0.66503746     1.20200
Mn215      Mn  0.49796431  0.04072270  0.33139165     1.10100
Cl216      Cl  0.03500048  0.00129974  0.66635051    -0.86000
C217        C  0.45182086  0.49581726  0.42520631     0.96300
C218        C  0.45151611  0.00410110  0.57007661     0.96100
C219        C  0.00983960  0.22008076  0.51746655    -0.14400
C220        C  0.02936838  0.23541432  0.49504965     0.16000
C221        C  0.04963609  0.22086296  0.47315111     0.02300
C222        C  0.05054587  0.19139223  0.47461098    -0.12900
C223        C  0.03125281  0.17585918  0.49729587    -0.04000
C224        C  0.01049296  0.19048499  0.51862073     0.01500
C225        C  0.02954448  0.26658644  0.49664701     0.08300
N226        N  0.06905058  0.23577301  0.44865146     0.64700
H227        H  0.06659844  0.18053944  0.45798476     0.17600
N228        N  0.49006357  0.17888914  0.54100902     0.75200
H229        H  0.49759924  0.23406896  0.53460290     0.09100
C230        C  0.00933810  0.28282345  0.47634271     0.02800
C231        C  0.01037059  0.31231278  0.47838383    -0.05900
C232        C  0.03137962  0.32607619  0.50041503    -0.24300
C233        C  0.05147977  0.30968491  0.52103460     0.12100
C234        C  0.05036379  0.28018734  0.51898890    -0.13400
N235        N  0.98828235  0.26967272  0.45248865     0.63700
H236        H  0.99473847  0.32457968  0.46241526     0.11600
N237        N  0.07400901  0.32264062  0.54243212     0.60400
H238        H  0.06608792  0.26777560  0.53457006     0.07800
O239        O  0.46663408  0.17347463  0.52489964    -0.41100
O240        O  0.49190668  0.17841963  0.57785862    -0.40300
O241        O  0.09470847  0.23747199  0.45855987    -0.40200
O242        O  0.06182938  0.24211094  0.41410294    -0.38000
O243        O  0.09684484  0.32835243  0.52519879    -0.38900
O244        O  0.07340154  0.32257287  0.57934029    -0.35000
O245        O  0.46857654  0.27090147  0.46181647    -0.36400
O246        O  0.99327752  0.26541315  0.41680050    -0.40700
C247        C  0.25509567  0.47375906  0.48200129    -0.14400
C248        C  0.26977514  0.49526507  0.50151586     0.16000
C249        C  0.25331459  0.01795943  0.52061963     0.02300
C250        C  0.22380407  0.01626075  0.51996170    -0.12900
C251        C  0.21017202  0.49453209  0.50022922    -0.04000
C252        C  0.22551284  0.47320994  0.48119149     0.01500
C253        C  0.30061086  0.99905390  0.50052048     0.08300
N254        N  0.26669357  0.04030062  0.54168726     0.64700
H255        H  0.21166249  0.03229413  0.53476919     0.17600
N256        N  0.21141207  0.45034127  0.46218805     0.75200
H257        H  0.26670502  0.45733687  0.46718336     0.09100
C258        C  0.31709134  0.47431721  0.51861623     0.02800
C259        C  0.34658150  0.47539509  0.51708672    -0.05900
C260        C  0.36052675  0.49728674  0.49710970    -0.24300
C261        C  0.34304154  0.02315106  0.47748298     0.12100
C262        C  0.31356345  0.02115718  0.47974994    -0.13400
N263        N  0.30375895  0.45154541  0.53907623     0.63700
H264        H  0.35872457  0.45890816  0.53149316     0.11600
N265        N  0.35534026  0.04603429  0.45599802     0.60400
H266        H  0.30063782  0.03687767  0.46490644     0.07800
O267        O  0.20708617  0.42770860  0.48092607    -0.41100
O268        O  0.20928455  0.45039403  0.42536661    -0.40300
O269        O  0.26598495  0.06512324  0.52811971    -0.40200
O270        O  0.27424428  0.03623034  0.57673644    -0.38000
O271        O  0.35706969  0.04444539  0.41924764    -0.38900
O272        O  0.35812838  0.06973607  0.47216083    -0.35000
O273        O  0.30290771  0.42740688  0.52377386    -0.36400
O274        O  0.29815353  0.45413443  0.57490636    -0.40700
C275        C  0.17888675  0.49496173  0.83362572     0.03100
C276        C  0.16421990  0.49634889  0.86922629    -0.13100
C277        C  0.13427351  0.99445685  0.86983982     0.00600
C278        C  0.11925287  0.99422168  0.83442432    -0.11600
C279        C  0.13372301  0.99387781  0.79881683     0.03100
C280        C  0.16365078  0.49563744  0.79824514    -0.11000
H281        H  0.17576997  0.49587338  0.89670016     0.08700
H282        H  0.09635733  0.99474897  0.83456079     0.06200
H283        H  0.17473719  0.49522732  0.77061111     0.06000
C284        C  0.39179043  0.49758947  0.83037135     0.03100
C285        C  0.40672298  0.49670218  0.79505324    -0.13100
C286        C  0.43625906  0.49514992  0.79536717     0.00600
C287        C  0.45101628  0.49447393  0.83099467    -0.11600
C288        C  0.43632442  0.49566921  0.86635993     0.03100
C289        C  0.40677980  0.49718888  0.86601805    -0.11000
H290        H  0.39541179  0.49672086  0.76739422     0.08700
H291        H  0.47389995  0.49365212  0.83117556     0.06200
H292        H  0.39544572  0.49803251  0.89344240     0.06000
C293        C  0.03377095  0.14462389  0.83170219     0.03100
C294        C  0.03567571  0.12953540  0.79653572    -0.13100
C295        C  0.04066222  0.10041446  0.79700662     0.00600
C296        C  0.04370981  0.08614044  0.83280535    -0.11600
C297        C  0.04109019  0.10078776  0.86805929     0.03100
C298        C  0.03615151  0.12996001  0.86747812    -0.11000
H299        H  0.03329177  0.14047726  0.76876087     0.08700
H300        H  0.04683475  0.06348893  0.83324167     0.06200
H301        H  0.03468572  0.14123924  0.89484774     0.06000
C302        C  0.03221150  0.35740379  0.83390678     0.03100
C303        C  0.03242151  0.37240024  0.86927454    -0.13100
C304        C  0.03245975  0.40199970  0.86897179     0.00600
C305        C  0.03220639  0.41673125  0.83329113    -0.11600
C306        C  0.03194504  0.40200937  0.79793183     0.03100
C307        C  0.03191000  0.37245432  0.79827329    -0.11000
H308        H  0.03207601  0.36111712  0.89696379     0.08700
H309        H  0.03233382  0.43961163  0.83304366     0.06200
H310        H  0.03184861  0.36116954  0.77080747     0.06000
N311        N  0.09640518  0.01071686  0.71248378    -0.06200
N312        N  0.11114810  0.01932705  0.74309925    -0.58300
N313        N  0.09570399  0.48579697  0.95519148    -0.05800
N314        N  0.10965632  0.47561128  0.92513524    -0.60400
N315        N  0.09689033  0.01094951  0.95539367    -0.05400
N316        N  0.11196057  0.01968797  0.92519485    -0.58300
N317        N  0.09526365  0.48553148  0.71214873    -0.05100
N318        N  0.10894568  0.47518912  0.74278303    -0.60800
C319        C  0.11834135  0.49844117  0.76148490     0.96000
C320        C  0.11892411  0.99550951  0.90694125     0.95800
N321        N  0.01947896  0.44113190  0.95414536    -0.06400
N322        N  0.00937531  0.42722576  0.92372924    -0.58900
N323        N  0.04698267  0.44007538  0.71167516    -0.04500
N324        N  0.05625807  0.42565067  0.74232232    -0.60100
N325        N  0.01920358  0.44088346  0.71140284    -0.06400
N326        N  0.00897351  0.42703280  0.74192342    -0.59100
N327        N  0.04726063  0.44029890  0.95460417    -0.04100
N328        N  0.05665863  0.42577059  0.92456933    -0.60200
Mn329      Mn  0.07199150  0.46220667  0.00006206     1.18400
C330        C  0.03279886  0.41766719  0.90580777     0.98100
C331        C  0.03233704  0.41757705  0.76070076     0.98800
N332        N  0.05339377  0.06102292  0.95411644    -0.06400
N333        N  0.06392325  0.07446347  0.92339411    -0.62700
N334        N  0.02542379  0.06290345  0.71092736    -0.05200
N335        N  0.01640164  0.07778836  0.74080282    -0.63400
N336        N  0.05312198  0.06077739  0.71187167    -0.05900
N337        N  0.06352624  0.07399008  0.74275509    -0.63000
N338        N  0.02568617  0.06308538  0.95428413    -0.04800
N339        N  0.01677638  0.07813238  0.92407044    -0.63700
Mn340      Mn  0.07578740  0.03658744  0.00012152     1.10700
C341        C  0.04079554  0.08515724  0.90524509     0.99300
C342        C  0.04034886  0.08457941  0.76026547     0.99400
N343        N  0.47554723  0.48343762  0.70997192    -0.05900
N344        N  0.46223098  0.47278345  0.74061539    -0.61300
N345        N  0.47481136  0.01725538  0.95250212    -0.05200
N346        N  0.46095434  0.02744991  0.92189353    -0.58000
N347        N  0.47580130  0.48378183  0.95258371    -0.06500
N348        N  0.46246225  0.47327068  0.92186243    -0.60900
N349        N  0.47455116  0.01699765  0.70954088    -0.05500
N350        N  0.46078956  0.02709991  0.73979723    -0.58000
Mn351      Mn  0.49991393  0.46108154  0.99837074     1.20200
Mn352      Mn  0.49796439  0.04072282  0.66472498     1.10100
Cl353      Cl  0.03500043  0.00129955  0.99968384    -0.86000
C354        C  0.45182094  0.49581735  0.75853957     0.96300
C355        C  0.45151617  0.00410089  0.90340988     0.96100
C356        C  0.00983899  0.22008075  0.85079986    -0.14400
C357        C  0.02936784  0.23541428  0.82838299     0.16000
C358        C  0.04963565  0.22086288  0.80648468     0.02300
C359        C  0.05054544  0.19139216  0.80794463    -0.12900
C360        C  0.03125229  0.17585913  0.83062943    -0.04000
C361        C  0.01049240  0.19048496  0.85195417     0.01500
C362        C  0.02954397  0.26658641  0.82998028     0.08300
N363        N  0.06905026  0.23577288  0.78198516     0.64700
H364        H  0.06659803  0.18053939  0.79131860     0.17600
N365        N  0.49006317  0.17888913  0.87434239     0.75200
H366        H  0.49759886  0.23406897  0.86793630     0.09100
C367        C  0.00933736  0.28282344  0.80967646     0.02800
C368        C  0.01036997  0.31231278  0.81171746    -0.05900
C369        C  0.03137929  0.32607616  0.83374815    -0.24300
C370        C  0.05147964  0.30968486  0.85436729     0.12100
C371        C  0.05036360  0.28018729  0.85232163    -0.13400
N372        N  0.98828121  0.26967272  0.78582304     0.63700
H373        H  0.99473769  0.32457972  0.79574921     0.11600
N374        N  0.07400910  0.32264055  0.87576439     0.60400
H375        H  0.06608790  0.26777554  0.86790246     0.07800
O376        O  0.46663392  0.17347408  0.85823271    -0.41100
O377        O  0.49190597  0.17842001  0.91119202    -0.40300
O378        O  0.09470813  0.23747179  0.79189375    -0.40200
O379        O  0.06182922  0.24211077  0.74743657    -0.38000
O380        O  0.09684500  0.32835175  0.85853084    -0.38900
O381        O  0.07340170  0.32257329  0.91267256    -0.35000
O382        O  0.46857594  0.27090168  0.79515120    -0.36400
O383        O  0.99327588  0.26541299  0.75013479    -0.40700
C384        C  0.25509573  0.47375862  0.81533479    -0.14400
C385        C  0.26977520  0.49526469  0.83484925     0.16000
C386        C  0.25331467  0.01795904  0.85395333     0.02300
C387        C  0.22380414  0.01626038  0.85329536    -0.12900
C388        C  0.21017209  0.49453169  0.83356274    -0.04000
C389        C  0.22551289  0.47320951  0.81452507     0.01500
C390        C  0.30061093  0.99905353  0.83385410     0.08300
N391        N  0.26669365  0.04030021  0.87502099     0.64700
H392        H  0.21166258  0.03229374  0.86810286     0.17600
N393        N  0.21141210  0.45034080  0.79552176     0.75200
H394        H  0.26670503  0.45733647  0.80051691     0.09100
C395        C  0.31709148  0.47431689  0.85194947     0.02800
C396        C  0.34658163  0.47539487  0.85041995    -0.05900
C397        C  0.36052681  0.49728656  0.83044293    -0.24300
C398        C  0.34304157  0.02315071  0.81081650     0.12100
C399        C  0.31356348  0.02115683  0.81308356    -0.13400
N400        N  0.30375917  0.45154503  0.87240941     0.63700
H401        H  0.35872476  0.45890795  0.86482637     0.11600
N402        N  0.35534025  0.04603402  0.78933165     0.60400
H403        H  0.30063783  0.03687733  0.79824014     0.07800
O404        O  0.20708625  0.42770816  0.81425989    -0.41100
O405        O  0.20928452  0.45039348  0.75870032    -0.40300
O406        O  0.26598542  0.06512275  0.86145315    -0.40200
O407        O  0.27424387  0.03623006  0.91007040    -0.38000
O408        O  0.35707012  0.04444500  0.75258133    -0.38900
O409        O  0.35812780  0.06973591  0.80549433    -0.35000
O410        O  0.30290735  0.42740670  0.85710649    -0.36400
O411        O  0.29815461  0.45413363  0.90823988    -0.40700
C412        C  0.17857678  0.99333620  0.16730148     0.03100
C413        C  0.16387040  0.99411794  0.20291877    -0.13100
C414        C  0.13469580  0.49827960  0.20277167     0.00600
C415        C  0.11971248  0.49898775  0.16733805    -0.11600
C416        C  0.13414407  0.49767879  0.13175971     0.03100
C417        C  0.16330384  0.99339723  0.13193799    -0.11000
H418        H  0.17544439  0.99443550  0.23037186     0.08700
H419        H  0.09686237  0.50043520  0.16745099     0.06200
H420        H  0.17439487  0.99376580  0.10429354     0.06000
C421        C  0.39127635  0.00465010  0.16363240     0.03100
C422        C  0.40623218  0.00431117  0.12829656    -0.13100
C423        C  0.43581279  0.00420431  0.12857648     0.00600
C424        C  0.45060418  0.00442581  0.16417685    -0.11600
C425        C  0.43589265  0.00458321  0.19957082     0.03100
C426        C  0.40629971  0.00466544  0.19927625    -0.11000
H427        H  0.39492261  0.00347873  0.10065626     0.08700
H428        H  0.47350529  0.00424502  0.16433209     0.06200
H429        H  0.39496374  0.00459754  0.22672638     0.06000
C430        C  0.02995557  0.64480167  0.16478781     0.03100
C431        C  0.03200505  0.62978144  0.12956748    -0.13100
C432        C  0.03700774  0.60065800  0.12998472     0.00600
C433        C  0.03995773  0.58634050  0.16575942    -0.11600
C434        C  0.03733189  0.60094815  0.20103615     0.03100
C435        C  0.03233575  0.63010191  0.20052998    -0.11000
H436        H  0.02976479  0.64078149  0.10181507     0.08700
H437        H  0.04324175  0.56371205  0.16615574     0.06200
H438        H  0.03089477  0.64135563  0.22792481     0.06000
C439        C  0.02798579  0.85755482  0.16759594     0.03100
C440        C  0.02823152  0.87250350  0.20299303    -0.13100
C441        C  0.02815957  0.90210030  0.20274762     0.00600
C442        C  0.02780444  0.91686973  0.16709336    -0.11600
C443        C  0.02768796  0.90218188  0.13170313     0.03100
C444        C  0.02771695  0.87262753  0.13199285    -0.11000
H445        H  0.02806889  0.86117904  0.23065779     0.08700
H446        H  0.02801316  0.93974982  0.16689001     0.06200
H447        H  0.02778497  0.86135764  0.10451640     0.06000
N448        N  0.09617598  0.51329418  0.04549989    -0.06200
N449        N  0.11046437  0.52244613  0.07623365    -0.58300
N450        N  0.09468616  0.98324891  0.28881217    -0.05800
N451        N  0.10814083  0.97256166  0.25863516    -0.60400
N452        N  0.09665125  0.51356180  0.28825186    -0.05400
N453        N  0.11125990  0.52285640  0.25790971    -0.58300
N454        N  0.09425339  0.98301573  0.04596245    -0.05100
N455        N  0.10743905  0.97218092  0.07670944    -0.60800
C456        C  0.11791780  0.99507083  0.09521610     0.96000
C457        C  0.11934074  0.49893487  0.23987751     0.95800
N458        N  0.01669571  0.94174818  0.28790826    -0.06400
N459        N  0.00604074  0.92829399  0.25744543    -0.58900
N460        N  0.04415645  0.93957790  0.04541640    -0.04500
N461        N  0.05284576  0.92475207  0.07601973    -0.60100
N462        N  0.01644481  0.94160392  0.04523252    -0.06400
N463        N  0.00567987  0.92824609  0.07581997    -0.59100
N464        N  0.04441122  0.93973137  0.28842444    -0.04100
N465        N  0.05320683  0.92478739  0.25844052    -0.60200
Mn466      Mn  0.07004148  0.96063715  0.33380275     1.18400
C467        C  0.02905404  0.91772002  0.23960495     0.98100
C468        C  0.02864013  0.91776681  0.09450880     0.98800
N469        N  0.05113876  0.56180244  0.28714585    -0.06400
N470        N  0.06112498  0.57565606  0.25643251    -0.62700
N471        N  0.02313366  0.56249427  0.04399579    -0.05200
N472        N  0.01354536  0.57701032  0.07389192    -0.63400
N473        N  0.05090567  0.56156368  0.04481955    -0.05900
N474        N  0.06080267  0.57527189  0.07559223    -0.63000
N475        N  0.02336354  0.56270374  0.28728803    -0.04800
N476        N  0.01385256  0.57732138  0.25701463    -0.63700
Mn477      Mn  0.07453012  0.53830951  0.33308146     1.10700
C478        C  0.03758531  0.58533600  0.23822278     0.99300
C479        C  0.03723356  0.58487914  0.09319352     0.99400
N480        N  0.47373195  0.98923882  0.04309137    -0.05900
N481        N  0.45934659  0.97983540  0.07354294    -0.61300
N482        N  0.47378346  0.51146935  0.28607291    -0.05200
N483        N  0.45891420  0.52038393  0.25563962    -0.58000
N484        N  0.47402534  0.98949104  0.28594045    -0.06500
N485        N  0.45960656  0.98019657  0.25540363    -0.60900
N486        N  0.47357723  0.51112771  0.04285612    -0.05500
N487        N  0.45880692  0.51992335  0.07296320    -0.58000
Mn488      Mn  0.49590735  0.96466158  0.33166538     1.20200
Mn489      Mn  0.49464421  0.53698098  0.99813520     1.10100
Cl490      Cl  0.03525449  0.50136738  0.33266945    -0.86000
C491        C  0.45135141  0.00370390  0.09173893     0.96300
C492        C  0.45194888  0.49634699  0.23684083     0.96100
C493        C  0.00575845  0.72016812  0.18382796    -0.14400
C494        C  0.02550349  0.73558628  0.16188758     0.16000
C495        C  0.04606711  0.72111113  0.14040612     0.02300
C496        C  0.04695318  0.69163632  0.14166017    -0.12900
C497        C  0.02742998  0.67602932  0.16385134    -0.04000
C498        C  0.00647348  0.69057494  0.18490986     0.01500
C499        C  0.02557115  0.76676108  0.16356509     0.08300
N500        N  0.06584666  0.73610642  0.11657652     0.64700
H501        H  0.06319410  0.68083739  0.12531456     0.17600
N502        N  0.48201275  0.67869296  0.20807041     0.75200
H503        H  0.48936068  0.73385789  0.20138279     0.09100
C504        C  0.00508427  0.78294791  0.14371495     0.02800
C505        C  0.00605592  0.81243865  0.14575599    -0.05900
C506        C  0.02724893  0.82624278  0.16738067    -0.24300
C507        C  0.04761507  0.80991825  0.18756448     0.12100
C508        C  0.04657892  0.78042230  0.18550418    -0.13400
N509        N  0.98381946  0.76975332  0.12026376     0.63700
H510        H  0.99023209  0.82467675  0.13011345     0.11600
N511        N  0.07032118  0.82295661  0.20850014     0.60400
H512        H  0.06251025  0.76806055  0.20074797     0.07800
O513        O  0.45837523  0.67361979  0.19233799    -0.41100
O514        O  0.48420739  0.67796618  0.24488048    -0.40300
O515        O  0.09129950  0.73797936  0.12741703    -0.40200
O516        O  0.05924705  0.74235120  0.08176275    -0.38000
O517        O  0.09281916  0.82908638  0.19069250    -0.38900
O518        O  0.07023424  0.82269517  0.24542183    -0.35000
O519        O  0.45984244  0.77022985  0.12930289    -0.36400
O520        O  0.98831550  0.76586863  0.08435811    -0.40700
C521        C  0.25556797  0.97529828  0.14867022    -0.14400
C522        C  0.26941171  0.99731990  0.16821697     0.16000
C523        C  0.25448211  0.51659506  0.18706936     0.02300
C524        C  0.22494035  0.51607026  0.18628581    -0.12900
C525        C  0.20986778  0.99421357  0.16716316    -0.04000
C526        C  0.22602465  0.97357178  0.14797900     0.01500
C527        C  0.30101773  0.49576313  0.16724709     0.08300
N528        N  0.26868866  0.53846525  0.20807070     0.64700
H529        H  0.21342137  0.53262028  0.20096664     0.17600
N530        N  0.21281268  0.95018698  0.12897848     0.75200
H531        H  0.26780110  0.95938281  0.13375856     0.09100
C532        C  0.31755526  0.97847989  0.18564614     0.02800
C533        C  0.34698065  0.98077405  0.18411028    -0.05900
C534        C  0.36003175  0.00301695  0.16371113    -0.24300
C535        C  0.34440617  0.51831322  0.14464923     0.12100
C536        C  0.31487332  0.51753066  0.14689861    -0.13400
N537        N  0.30516188  0.95537923  0.20652498     0.63700
H538        H  0.35980097  0.96491737  0.19884730     0.11600
N539        N  0.35765990  0.54087103  0.12360237     0.60400
H540        H  0.30263446  0.53389439  0.13237504     0.07800
O541        O  0.20931202  0.92741844  0.14773056    -0.41100
O542        O  0.21065324  0.95017161  0.09216127    -0.40300
O543        O  0.26828235  0.56341805  0.19494815    -0.40200
O544        O  0.27677444  0.53392052  0.24278404    -0.38000
O545        O  0.35941930  0.53953231  0.08683368    -0.38900
O546        O  0.36142102  0.56428661  0.14019992    -0.35000
O547        O  0.30469758  0.93122992  0.19123253    -0.36400
O548        O  0.30022704  0.95779250  0.24257500    -0.40700
C549        C  0.17857677  0.99333613  0.50063476     0.03100
C550        C  0.16387040  0.99411799  0.53625205    -0.13100
C551        C  0.13469584  0.49827974  0.53610490     0.00600
C552        C  0.11971249  0.49898795  0.50067131    -0.11600
C553        C  0.13414404  0.49767887  0.46509294     0.03100
C554        C  0.16330383  0.99339714  0.46527127    -0.11000
H555        H  0.17544438  0.99443554  0.56370513     0.08700
H556        H  0.09686238  0.50043552  0.50078429     0.06200
H557        H  0.17439485  0.99376561  0.43762685     0.06000
C558        C  0.39127634  0.00465029  0.49696578     0.03100
C559        C  0.40623216  0.00431144  0.46162993    -0.13100
C560        C  0.43581276  0.00420457  0.46190983     0.00600
C561        C  0.45060417  0.00442604  0.49751018    -0.11600
C562        C  0.43589266  0.00458339  0.53290417     0.03100
C563        C  0.40629971  0.00466558  0.53260962    -0.11000
H564        H  0.39492256  0.00347906  0.43398964     0.08700
H565        H  0.47350528  0.00424524  0.49766541     0.06200
H566        H  0.39496375  0.00459761  0.56005976     0.06000
C567        C  0.02995529  0.64480178  0.49812098     0.03100
C568        C  0.03200472  0.62978149  0.46290070    -0.13100
C569        C  0.03700756  0.60065808  0.46331801     0.00600
C570        C  0.03995773  0.58634065  0.49909275    -0.11600
C571        C  0.03733194  0.60094835  0.53436945     0.03100
C572        C  0.03233567  0.63010210  0.53386320    -0.11000
H573        H  0.02976430  0.64078148  0.43514825     0.08700
H574        H  0.04324185  0.56371222  0.49948912     0.06200
H575        H  0.03089471  0.64135585  0.56125801     0.06000
C576        C  0.02798563  0.85755492  0.50092932     0.03100
C577        C  0.02823150  0.87250361  0.53632640    -0.13100
C578        C  0.02815971  0.90210041  0.53608098     0.00600
C579        C  0.02780459  0.91686983  0.50042673    -0.11600
C580        C  0.02768793  0.90218198  0.46503651     0.03100
C581        C  0.02771678  0.87262762  0.46532623    -0.11000
H582        H  0.02806885  0.86117914  0.56399121     0.08700
H583        H  0.02801340  0.93974989  0.50022337     0.06200
H584        H  0.02778467  0.86135774  0.43784979     0.06000
N585        N  0.09617585  0.51329425  0.37883321    -0.06200
N586        N  0.11046426  0.52244620  0.40956695    -0.58300
N587        N  0.09468627  0.98324910  0.62214554    -0.05800
N588        N  0.10814089  0.97256186  0.59196850    -0.60400
N589        N  0.09665140  0.51356198  0.62158519    -0.05400
N590        N  0.11126001  0.52285657  0.59124299    -0.58300
N591        N  0.09425336  0.98301575  0.37929576    -0.05100
N592        N  0.10743902  0.97218094  0.41004275    -0.60800
C593        C  0.11791779  0.99507086  0.42854938     0.96000
C594        C  0.11934082  0.49893504  0.57321077     0.95800
N595        N  0.01669586  0.94174833  0.62124156    -0.06400
N596        N  0.00604089  0.92829412  0.59077875    -0.58900
N597        N  0.04415638  0.93957798  0.37874977    -0.04500
N598        N  0.05284570  0.92475215  0.40935309    -0.60100
N599        N  0.01644474  0.94160401  0.37856591    -0.06400
N600        N  0.00567981  0.92824619  0.40915337    -0.59100
N601        N  0.04441136  0.93973153  0.62175775    -0.04100
N602        N  0.05320699  0.92478753  0.59177386    -0.60200
Mn603      Mn  0.07004160  0.96063730  0.66713609     1.18400
C604        C  0.02905420  0.91772014  0.57293830     0.98100
C605        C  0.02864008  0.91776690  0.42784218     0.98800
N606        N  0.05113891  0.56180267  0.62047920    -0.06400
N607        N  0.06112510  0.57565630  0.58976584    -0.62700
N608        N  0.02313349  0.56249434  0.37732904    -0.05200
N609        N  0.01354518  0.57701039  0.40722518    -0.63400
N610        N  0.05090551  0.56156372  0.37815285    -0.05900
N611        N  0.06080250  0.57527191  0.40892556    -0.63000
N612        N  0.02336369  0.56270396  0.62062140    -0.04800
N613        N  0.01385268  0.57732159  0.59034802    -0.63700
Mn614      Mn  0.07453028  0.53830969  0.66641483     1.10700
C615        C  0.03758542  0.58533624  0.57155614     0.99300
C616        C  0.03723338  0.58487917  0.42652684     0.99400
N617        N  0.47373192  0.98923895  0.37642476    -0.05900
N618        N  0.45934653  0.97983558  0.40687633    -0.61300
N619        N  0.47378358  0.51146951  0.61940620    -0.05200
N620        N  0.45891428  0.52038409  0.58897296    -0.58000
N621        N  0.47402546  0.98949117  0.61927370    -0.06500
N622        N  0.45960665  0.98019671  0.58873691    -0.60900
N623        N  0.47357719  0.51112780  0.37618947    -0.05500
N624        N  0.45880686  0.51992348  0.40629652    -0.58000
Mn625      Mn  0.49590748  0.96466169  0.66499862     1.20200
Mn626      Mn  0.49464418  0.53698101  0.33146853     1.10100
Cl627      Cl  0.03525466  0.50136755  0.66600278    -0.86000
C628        C  0.45135138  0.00370411  0.42507228     0.96300
C629        C  0.45194893  0.49634715  0.57017419     0.96100
C630        C  0.00575816  0.72016821  0.51716151    -0.14400
C631        C  0.02550291  0.73558640  0.49522068     0.16000
C632        C  0.04606626  0.72111130  0.47373868     0.02300
C633        C  0.04695243  0.69163648  0.47499273    -0.12900
C634        C  0.02742954  0.67602944  0.49718440    -0.04000
C635        C  0.00647325  0.69057502  0.51824335     0.01500
C636        C  0.02557063  0.76676119  0.49689834     0.08300
N637        N  0.06584547  0.73610664  0.44990860     0.64700
H638        H  0.06319316  0.68083762  0.45864680     0.17600
N639        N  0.48201264  0.67869302  0.54140388     0.75200
H640        H  0.48936042  0.73385791  0.53471603     0.09100
C641        C  0.00508375  0.78294812  0.47704832     0.02800
C642        C  0.00605552  0.81243884  0.47908943    -0.05900
C643        C  0.02724862  0.82624288  0.50071405    -0.24300
C644        C  0.04761474  0.80991826  0.52089776     0.12100
C645        C  0.04657847  0.78042232  0.51883738    -0.13400
N646        N  0.98381884  0.76975363  0.45359721     0.63700
H647        H  0.99023166  0.82467705  0.46344693     0.11600
N648        N  0.07032093  0.82295651  0.54183337     0.60400
H649        H  0.06250984  0.76806046  0.53408110     0.07800
O650        O  0.45837510  0.67361960  0.52567166    -0.41100
O651        O  0.48420740  0.67796643  0.57821394    -0.40300
O652        O  0.09129841  0.73797979  0.46074859    -0.40200
O653        O  0.05924545  0.74235128  0.41509493    -0.38000
O654        O  0.09281896  0.82908608  0.52402571    -0.38900
O655        O  0.07023398  0.82269515  0.57875505    -0.35000
O656        O  0.45984185  0.77023032  0.46263655    -0.36400
O657        O  0.98831462  0.76586933  0.41769141    -0.40700
C658        C  0.25556796  0.97529814  0.48200348    -0.14400
C659        C  0.26941171  0.99731974  0.50155024     0.16000
C660        C  0.25448206  0.51659495  0.52040257     0.02300
C661        C  0.22494031  0.51607013  0.51961897    -0.12900
C662        C  0.20986778  0.99421346  0.50049644    -0.04000
C663        C  0.22602462  0.97357165  0.48131227     0.01500
C664        C  0.30101773  0.49576311  0.50058033     0.08300
N665        N  0.26868858  0.53846515  0.54140396     0.64700
H666        H  0.21342132  0.53262013  0.53429982     0.17600
N667        N  0.21281263  0.95018687  0.46231173     0.75200
H668        H  0.26780106  0.95938268  0.46709177     0.09100
C669        C  0.31755533  0.97847964  0.51897899     0.02800
C670        C  0.34698072  0.98077391  0.51744323    -0.05900
C671        C  0.36003175  0.00301705  0.49704451    -0.24300
C672        C  0.34440615  0.51831359  0.47798310     0.12100
C673        C  0.31487329  0.51753091  0.48023235    -0.13400
N674        N  0.30516202  0.95537873  0.53985739     0.63700
H675        H  0.35980106  0.96491716  0.53217995     0.11600
N676        N  0.35765985  0.54087170  0.45693682     0.60400
H677        H  0.30263443  0.53389474  0.46570912     0.07800
O678        O  0.20931169  0.92741842  0.48106390    -0.41100
O679        O  0.21065341  0.95017141  0.42549450    -0.40300
O680        O  0.26828181  0.56341805  0.52828180    -0.40200
O681        O  0.27677485  0.53392023  0.57611704    -0.38000
O682        O  0.35941938  0.53953343  0.42016811    -0.38900
O683        O  0.36142083  0.56428710  0.47353493    -0.35000
O684        O  0.30469781  0.93122957  0.52456448    -0.36400
O685        O  0.30022716  0.95779163  0.57590746    -0.40700
C686        C  0.17857684  0.99333588  0.83396823     0.03100
C687        C  0.16387044  0.99411771  0.86958549    -0.13100
C688        C  0.13469590  0.49827953  0.86943830     0.00600
C689        C  0.11971259  0.49898794  0.83400468    -0.11600
C690        C  0.13414416  0.49767887  0.79842633     0.03100
C691        C  0.16330393  0.99339703  0.79860471    -0.11000
H692        H  0.17544441  0.99443515  0.89703863     0.08700
H693        H  0.09686249  0.50043562  0.83411764     0.06200
H694        H  0.17439497  0.99376551  0.77096030     0.06000
C695        C  0.39127640  0.00464994  0.83029910     0.03100
C696        C  0.40623220  0.00431118  0.79496323    -0.13100
C697        C  0.43581281  0.00420446  0.79524309     0.00600
C698        C  0.45060423  0.00442594  0.83084344    -0.11600
C699        C  0.43589273  0.00458317  0.86623744     0.03100
C700        C  0.40629978  0.00466525  0.86594292    -0.11000
H701        H  0.39492260  0.00347876  0.76732296     0.08700
H702        H  0.47350535  0.00424524  0.83099865     0.06200
H703        H  0.39496384  0.00459721  0.89339307     0.06000
C704        C  0.02995498  0.64480171  0.83145456     0.03100
C705        C  0.03200451  0.62978146  0.79623426    -0.13100
C706        C  0.03700758  0.60065809  0.79665151     0.00600
C707        C  0.03995782  0.58634065  0.83242622    -0.11600
C708        C  0.03733187  0.60094829  0.86770295     0.03100
C709        C  0.03233540  0.63010200  0.86719675    -0.11000
H710        H  0.02976404  0.64078147  0.76848180     0.08700
H711        H  0.04324210  0.56371225  0.83282255     0.06200
H712        H  0.03089435  0.64135572  0.89459159     0.06000
C713        C  0.02798532  0.85755486  0.83426244     0.03100
C714        C  0.02823124  0.87250353  0.86965955    -0.13100
C715        C  0.02815966  0.90210033  0.86941417     0.00600
C716        C  0.02780470  0.91686978  0.83375993    -0.11600
C717        C  0.02768795  0.90218195  0.79836969     0.03100
C718        C  0.02771657  0.87262759  0.79865937    -0.11000
H719        H  0.02806849  0.86117905  0.89732431     0.08700
H720        H  0.02801367  0.93974984  0.83355661     0.06200
H721        H  0.02778439  0.86135771  0.77118291     0.06000
N722        N  0.09617601  0.51329440  0.71216659    -0.06200
N723        N  0.11046442  0.52244631  0.74290036    -0.58300
N724        N  0.09468623  0.98324893  0.95547887    -0.05800
N725        N  0.10814090  0.97256170  0.92530187    -0.60400
N726        N  0.09665138  0.51356175  0.95491852    -0.05400
N727        N  0.11126001  0.52285634  0.92457634    -0.58300
N728        N  0.09425346  0.98301589  0.71262913    -0.05100
N729        N  0.10743914  0.97218105  0.74337608    -0.60800
C730        C  0.11791791  0.99507095  0.76188276     0.96000
C731        C  0.11934086  0.49893482  0.90654415     0.95800
N732        N  0.01669582  0.94174814  0.95457487    -0.06400
N733        N  0.00604086  0.92829396  0.92411203    -0.58900
N734        N  0.04415649  0.93957809  0.71208308    -0.04500
N735        N  0.05284578  0.92475222  0.74268637    -0.60100
N736        N  0.01644484  0.94160410  0.71189917    -0.06400
N737        N  0.00567989  0.92824621  0.74248656    -0.59100
N738        N  0.04441133  0.93973136  0.95509104    -0.04100
N739        N  0.05320695  0.92478740  0.92510710    -0.60200
Mn740      Mn  0.07004155  0.96063712  0.00046941     1.18400
C741        C  0.02905416  0.91772003  0.90627153     0.98100
C742        C  0.02864014  0.91776691  0.76117539     0.98800
N743        N  0.05113889  0.56180245  0.95381254    -0.06400
N744        N  0.06112507  0.57565612  0.92309920    -0.62700
N745        N  0.02313364  0.56249448  0.71066242    -0.05200
N746        N  0.01354529  0.57701048  0.74055858    -0.63400
N747        N  0.05090565  0.56156387  0.71148625    -0.05900
N748        N  0.06080260  0.57527201  0.74225903    -0.63000
N749        N  0.02336367  0.56270378  0.95395480    -0.04800
N750        N  0.01385265  0.57732147  0.92368148    -0.63700
Mn751      Mn  0.07453027  0.53830947  0.99974813     1.10700
C752        C  0.03758538  0.58533612  0.90488958     0.99300
C753        C  0.03723347  0.58487923  0.75986030     0.99400
N754        N  0.47373201  0.98923901  0.70975800    -0.05900
N755        N  0.45934661  0.97983558  0.74020953    -0.61300
N756        N  0.47378351  0.51146935  0.95273955    -0.05200
N757        N  0.45891425  0.52038395  0.92230629    -0.58000
N758        N  0.47402540  0.98949097  0.95260706    -0.06500
N759        N  0.45960666  0.98019651  0.92207021    -0.60900
N760        N  0.47357729  0.51112793  0.70952276    -0.05500
N761        N  0.45880695  0.51992359  0.73962980    -0.58000
Mn762      Mn  0.49590742  0.96466151  0.99833198     1.20200
Mn763      Mn  0.49464430  0.53698116  0.66480184     1.10100
Cl764      Cl  0.03525463  0.50136735  0.99933611    -0.86000
C765        C  0.45135142  0.00370407  0.75840552     0.96300
C766        C  0.45194894  0.49634703  0.90350745     0.96100
C767        C  0.00575778  0.72016816  0.85049494    -0.14400
C768        C  0.02550248  0.73558634  0.82855399     0.16000
C769        C  0.04606585  0.72111119  0.80707206     0.02300
C770        C  0.04695204  0.69163639  0.80832624    -0.12900
C771        C  0.02742919  0.67602937  0.83051798    -0.04000
C772        C  0.00647292  0.69057498  0.85157695     0.01500
C773        C  0.02557020  0.76676113  0.83023155     0.08300
N774        N  0.06584508  0.73610649  0.78324195     0.64700
H775        H  0.06319281  0.68083751  0.79198032     0.17600
N776        N  0.48201182  0.67869284  0.87473713     0.75200
H777        H  0.48935938  0.73385781  0.86804940     0.09100
C778        C  0.00508318  0.78294806  0.81038180     0.02800
C779        C  0.00605502  0.81243879  0.81242281    -0.05900
C780        C  0.02724825  0.82624283  0.83404717    -0.24300
C781        C  0.04761449  0.80991820  0.85423065     0.12100
C782        C  0.04657822  0.78042227  0.85217027    -0.13400
N783        N  0.98381801  0.76975355  0.78693116     0.63700
H784        H  0.99023106  0.82467700  0.79678050     0.11600
N785        N  0.07032076  0.82295646  0.87516609     0.60400
H786        H  0.06250968  0.76806042  0.86741382     0.07800
O787        O  0.45837444  0.67361907  0.85900467    -0.41100
O788        O  0.48420637  0.67796641  0.91154723    -0.40300
O789        O  0.09129798  0.73797975  0.79408207    -0.40200
O790        O  0.05924517  0.74235084  0.74842814    -0.38000
O791        O  0.09281893  0.82908551  0.85735845    -0.38900
O792        O  0.07023369  0.82269552  0.91208777    -0.35000
O793        O  0.45984028  0.77023084  0.79597242    -0.36400
O794        O  0.98831339  0.76586918  0.75102527    -0.40700
C795        C  0.25556803  0.97529780  0.81533706    -0.14400
C796        C  0.26941179  0.99731936  0.83488391     0.16000
C797        C  0.25448215  0.51659459  0.85373595     0.02300
C798        C  0.22494039  0.51606977  0.85295243    -0.12900
C799        C  0.20986785  0.99421314  0.83382998    -0.04000
C800        C  0.22602469  0.97357135  0.81464578     0.01500
C801        C  0.30101780  0.49576277  0.83391361     0.08300
N802        N  0.26868867  0.53846483  0.87473723     0.64700
H803        H  0.21342144  0.53261975  0.86763320     0.17600
N804        N  0.21281269  0.95018664  0.79564508     0.75200
H805        H  0.26780111  0.95938238  0.80042532     0.09100
C806        C  0.31755543  0.97847929  0.85231260     0.02800
C807        C  0.34698081  0.98077355  0.85077671    -0.05900
C808        C  0.36003181  0.00301667  0.83037789    -0.24300
C809        C  0.34440614  0.51831338  0.81131637     0.12100
C810        C  0.31487329  0.51753061  0.81356565    -0.13400
N811        N  0.30516215  0.95537843  0.87319115     0.63700
H812        H  0.35980118  0.96491681  0.86551340     0.11600
N813        N  0.35765977  0.54087155  0.79027012     0.60400
H814        H  0.30263437  0.53389444  0.79904245     0.07800
O815        O  0.20931182  0.92741810  0.81439707    -0.41100
O816        O  0.21065345  0.95017132  0.75882785    -0.40300
O817        O  0.26828231  0.56341761  0.86161460    -0.40200
O818        O  0.27677442  0.53392018  0.90945060    -0.38000
O819        O  0.35941941  0.53953325  0.75350142    -0.38900
O820        O  0.36142052  0.56428700  0.80686819    -0.35000
O821        O  0.30469729  0.93122939  0.85789792    -0.36400
O822        O  0.30022816  0.95779113  0.90924148    -0.40700
C823        C  0.67876726  0.50466800  0.16657459     0.03100
C824        C  0.66418489  0.50620219  0.20221646    -0.13100
C825        C  0.63458887  0.99965492  0.20255846     0.00600
C826        C  0.61951075  0.99958490  0.16719032    -0.11600
C827        C  0.63391113  0.99888795  0.13154358     0.03100
C828        C  0.66344541  0.50521069  0.13126592    -0.11000
H829        H  0.67577547  0.50541984  0.22965135     0.08700
H830        H  0.59661830  0.00016734  0.16740246     0.06200
H831        H  0.67444022  0.50432993  0.10359454     0.06000
C832        C  0.89171260  0.50713404  0.16425331     0.03100
C833        C  0.90665309  0.50619033  0.12893023    -0.13100
C834        C  0.93618702  0.50458463  0.12926118     0.00600
C835        C  0.95093548  0.50396141  0.16488908    -0.11600
C836        C  0.93622916  0.50492089  0.20025063     0.03100
C837        C  0.90668934  0.50646710  0.19991245    -0.11000
H838        H  0.89533747  0.50607128  0.10127195     0.08700
H839        H  0.97380175  0.50276635  0.16508746     0.06200
H840        H  0.89534791  0.50702045  0.22734640     0.06000
C841        C  0.53200133  0.14548791  0.16439601     0.03100
C842        C  0.53290189  0.13033298  0.12916979    -0.13100
C843        C  0.53612671  0.10096008  0.12960079     0.00600
C844        C  0.53827913  0.08650091  0.16535047    -0.11600
C845        C  0.53694559  0.10128956  0.20061057     0.03100
C846        C  0.53388374  0.13070396  0.20013243    -0.11000
H847        H  0.53127487  0.14142023  0.10140486     0.08700
H848        H  0.54034363  0.06372227  0.16574619     0.06200
H849        H  0.53357761  0.14204616  0.22753004     0.06000
C850        C  0.54023588  0.35815693  0.16677011     0.03100
C851        C  0.54080436  0.37320837  0.20209095    -0.13100
C852        C  0.54217633  0.40278738  0.20172184     0.00600
C853        C  0.54276299  0.41745182  0.16599971    -0.11600
C854        C  0.54157199  0.40269307  0.13069470     0.03100
C855        C  0.54034836  0.37317198  0.13111430    -0.11000
H856        H  0.53952558  0.36202278  0.22978529     0.08700
H857        H  0.54338999  0.44032683  0.16568116     0.06200
H858        H  0.53951461  0.36188654  0.10365867     0.06000
N859        N  0.59577544  0.01416661  0.04530061    -0.06200
N860        N  0.61001032  0.02341326  0.07602245    -0.58300
N861        N  0.59716992  0.49257513  0.28838687    -0.05800
N862        N  0.61221698  0.48382317  0.25849777    -0.60400
N863        N  0.59647247  0.01451512  0.28810135    -0.05400
N864        N  0.61108961  0.02395059  0.25785361    -0.58300
N865        N  0.59652832  0.49212933  0.04513969    -0.05100
N866        N  0.61123570  0.48312898  0.07565693    -0.60800
C867        C  0.61801412  0.50710233  0.09470121     0.96000
C868        C  0.61929613  0.00011378  0.23972134     0.95800
N869        N  0.52574261  0.44037161  0.28697837    -0.06400
N870        N  0.51704206  0.42544247  0.25671858    -0.58900
N871        N  0.55310481  0.44210926  0.04451807    -0.04500
N872        N  0.56371053  0.42884565  0.07535629    -0.60100
N873        N  0.52539033  0.43992762  0.04398684    -0.06400
N874        N  0.51653951  0.42500498  0.07435578    -0.59100
N875        N  0.55346896  0.44251566  0.28720093    -0.04100
N876        N  0.56422550  0.42916307  0.25696007    -0.60200
Mn877      Mn  0.57582454  0.46668136  0.33295685     1.18400
C878        C  0.54124940  0.41852384  0.23847461     0.98100
C879        C  0.54067513  0.41819601  0.09344596     0.98800
N880        N  0.55060862  0.06239923  0.28688904    -0.06400
N881        N  0.56062130  0.07635330  0.25629512    -0.62700
N882        N  0.52236905  0.06280905  0.04355665    -0.05200
N883        N  0.51266440  0.07719201  0.07351946    -0.63400
N884        N  0.55014840  0.06209301  0.04439259    -0.05900
N885        N  0.55994032  0.07586235  0.07514904    -0.63000
N886        N  0.52282210  0.06302963  0.28677049    -0.04800
N887        N  0.51332346  0.07749565  0.25634747    -0.63700
Mn888      Mn  0.57404530  0.03904788  0.33283239     1.10700
C889        C  0.53708564  0.08575437  0.23782244     0.99300
C890        C  0.53631043  0.08523986  0.09279282     0.99400
N891        N  0.97402920  0.48919958  0.04383009    -0.05900
N892        N  0.95961347  0.47992509  0.07433641    -0.61300
N893        N  0.97562086  0.01954892  0.28683127    -0.05200
N894        N  0.96231457  0.03034676  0.25614962    -0.58000
N895        N  0.97420254  0.48942689  0.28661490    -0.06500
N896        N  0.95977749  0.48025101  0.25600960    -0.60900
N897        N  0.97549588  0.01941994  0.04394394    -0.05500
N898        N  0.96228098  0.03019021  0.07423417    -0.58000
Mn899      Mn  0.99594418  0.46443546  0.33231666     1.20200
Mn900      Mn  0.99992536  0.04195652  0.99895912     1.10100
Cl901      Cl  0.53499251  0.00185102  0.33218556    -0.86000
C902        C  0.95173902  0.50387390  0.09244346     0.96300
C903        C  0.95168473  0.00744767  0.23780012     0.96100
C904        C  0.51254882  0.22212463  0.18411523    -0.14400
C905        C  0.53250255  0.23638343  0.16110242     0.16000
C906        C  0.55168549  0.22078186  0.13874777     0.02300
C907        C  0.55104911  0.19129629  0.14025467    -0.12900
C908        C  0.53125712  0.17681842  0.16344482    -0.04000
C909        C  0.51165863  0.19254470  0.18535887     0.01500
C910        C  0.53414502  0.26750533  0.16247143     0.08300
N911        N  0.57156188  0.23464108  0.11379427     0.64700
H912        H  0.56626710  0.17959677  0.12323899     0.17600
N913        N  0.98926921  0.17564453  0.20684136     0.75200
H914        H  0.99403319  0.23118751  0.20089750     0.09100
C915        C  0.51490992  0.28452965  0.14163249     0.02800
C916        C  0.51697289  0.31394576  0.14393547    -0.05900
C917        C  0.53815235  0.32687393  0.16663745    -0.24300
C918        C  0.55737627  0.30968289  0.18763965     0.12100
C919        C  0.55517497  0.28024389  0.18540083    -0.13400
N920        N  0.49381832  0.27222458  0.11697966     0.63700
H921        H  0.50203250  0.32680457  0.12760437     0.11600
N922        N  0.58012820  0.32171619  0.20962455     0.60400
H923        H  0.57016578  0.26720068  0.20136918     0.07800
O924        O  0.96682054  0.16821827  0.18962940    -0.41100
O925        O  0.99005844  0.17577310  0.24375286    -0.40300
O926        O  0.59745897  0.23444798  0.12269235    -0.40200
O927        O  0.56409922  0.24186438  0.07967369    -0.38000
O928        O  0.60388230  0.32492366  0.19362008    -0.38900
O929        O  0.57839547  0.32290756  0.24640381    -0.35000
O930        O  0.96328741  0.26759427  0.13147374    -0.36400
O931        O  0.49926644  0.26793368  0.08142975    -0.40700
C932        C  0.75495618  0.48311197  0.14861397    -0.14400
C933        C  0.76966327  0.50467290  0.16797841     0.16000
C934        C  0.75347196  0.02291401  0.18645220     0.02300
C935        C  0.72397122  0.02119865  0.18562171    -0.12900
C936        C  0.71005315  0.50411637  0.16646367    -0.04000
C937        C  0.72536673  0.48268140  0.14761664     0.01500
C938        C  0.80085512  0.00373593  0.16723658     0.08300
N939        N  0.76674991  0.04559694  0.20693809     0.64700
H940        H  0.71177355  0.03736506  0.20007216     0.17600
N941        N  0.71124042  0.45991850  0.12840858     0.75200
H942        H  0.76654629  0.46660650  0.13394976     0.09100
C943        C  0.81696081  0.48388146  0.18567519     0.02800
C944        C  0.84645799  0.48505673  0.18445305    -0.05900
C945        C  0.86044140  0.50683644  0.16428214    -0.24300
C946        C  0.84344377  0.02781332  0.14472563     0.12100
C947        C  0.81395210  0.02579494  0.14655063    -0.13400
N948        N  0.80360799  0.46122817  0.20635690     0.63700
H949        H  0.85857163  0.46869334  0.19917552     0.11600
N950        N  0.85588443  0.05072421  0.12345967     0.60400
H951        H  0.80113161  0.04149087  0.13148493     0.07800
O952        O  0.70680123  0.43723720  0.14697930    -0.41100
O953        O  0.70928334  0.46007457  0.09156885    -0.40300
O954        O  0.76561851  0.07028887  0.19296466    -0.40200
O955        O  0.77463928  0.04193385  0.24192830    -0.38000
O956        O  0.85716072  0.04953244  0.08663707    -0.38900
O957        O  0.85932315  0.07417184  0.14009822    -0.35000
O958        O  0.80162087  0.43733891  0.19049738    -0.36400
O959        O  0.79952652  0.46338107  0.24265296    -0.40700
C960        C  0.67876731  0.50466798  0.49990785     0.03100
C961        C  0.66418496  0.50620222  0.53554973    -0.13100
C962        C  0.63458892  0.99965507  0.53589176     0.00600
C963        C  0.61951080  0.99958498  0.50052363    -0.11600
C964        C  0.63391116  0.99888789  0.46487688     0.03100
C965        C  0.66344544  0.50521066  0.46459920    -0.11000
H966        H  0.67577554  0.50541987  0.56298460     0.08700
H967        H  0.59661835  0.00016745  0.50073577     0.06200
H968        H  0.67444025  0.50432990  0.43692778     0.06000
C969        C  0.89171264  0.50713436  0.49758685     0.03100
C970        C  0.90665309  0.50619065  0.46226374    -0.13100
C971        C  0.93618701  0.50458488  0.46259463     0.00600
C972        C  0.95093551  0.50396163  0.49822250    -0.11600
C973        C  0.93622922  0.50492114  0.53358407     0.03100
C974        C  0.90668941  0.50646738  0.53324596    -0.11000
H975        H  0.89533744  0.50607164  0.43460549     0.08700
H976        H  0.97380176  0.50276653  0.49842082     0.06200
H977        H  0.89534801  0.50702072  0.56067992     0.06000
C978        C  0.53200131  0.14548799  0.49772921     0.03100
C979        C  0.53290188  0.13033300  0.46250304    -0.13100
C980        C  0.53612680  0.10096011  0.46293411     0.00600
C981        C  0.53827928  0.08650099  0.49868383    -0.11600
C982        C  0.53694570  0.10128970  0.53394390     0.03100
C983        C  0.53388378  0.13070409  0.53346567    -0.11000
H984        H  0.53127480  0.14142020  0.43473807     0.08700
H985        H  0.54034383  0.06372238  0.49907961     0.06200
H986        H  0.53357764  0.14204633  0.56086327     0.06000
C987        C  0.54023597  0.35815701  0.50010347     0.03100
C988        C  0.54080447  0.37320844  0.53542432    -0.13100
C989        C  0.54217647  0.40278745  0.53505523     0.00600
C990        C  0.54276310  0.41745189  0.49933311    -0.11600
C991        C  0.54157206  0.40269316  0.46402810     0.03100
C992        C  0.54034846  0.37317207  0.46444767    -0.11000
H993        H  0.53952567  0.36202284  0.56311868     0.08700
H994        H  0.54339011  0.44032693  0.49901457     0.06200
H995        H  0.53951470  0.36188666  0.43699203     0.06000
N996        N  0.59577546  0.01416655  0.37863392    -0.06200
N997        N  0.61001036  0.02341319  0.40935574    -0.58300
N998        N  0.59717004  0.49257528  0.62172023    -0.05800
N999        N  0.61221707  0.48382330  0.59183112    -0.60400
N1000       N  0.59647259  0.01451531  0.62143472    -0.05400
N1001       N  0.61108969  0.02395077  0.59118694    -0.58300
N1002       N  0.59652832  0.49212932  0.37847301    -0.05100
N1003       N  0.61123572  0.48312897  0.40899024    -0.60800
C1004       C  0.61801414  0.50710231  0.42803453     0.96000
C1005       C  0.61929619  0.00011396  0.57305466     0.95800
N1006       N  0.52574274  0.44037175  0.62031168    -0.06400
N1007       N  0.51704220  0.42544258  0.59005192    -0.58900
N1008       N  0.55310479  0.44210930  0.37785142    -0.04500
N1009       N  0.56371053  0.42884571  0.40868963    -0.60100
N1010       N  0.52539030  0.43992768  0.37732027    -0.06400
N1011       N  0.51653951  0.42500507  0.40768925    -0.59100
N1012       N  0.55346909  0.44251580  0.62053425    -0.04100
N1013       N  0.56422564  0.42916317  0.59029343    -0.60200
Mn1014     Mn  0.57582466  0.46668150  0.66629019     1.18400
C1015       C  0.54124955  0.41852392  0.57180799     0.98100
C1016       C  0.54067515  0.41819610  0.42677938     0.98800
N1017       N  0.55060871  0.06239941  0.62022243    -0.06400
N1018       N  0.56062140  0.07635349  0.58962852    -0.62700
N1019       N  0.52236911  0.06280908  0.37688996    -0.05200
N1020       N  0.51266448  0.07719205  0.40685277    -0.63400
N1021       N  0.55014846  0.06209300  0.37772593    -0.05900
N1022       N  0.55994039  0.07586230  0.40848241    -0.63000
N1023       N  0.52282219  0.06302979  0.62010386    -0.04800
N1024       N  0.51332356  0.07749582  0.58968083    -0.63700
Mn1025     Mn  0.57404539  0.03904805  0.66616579     1.10700
C1026       C  0.53708574  0.08575455  0.57115582     0.99300
C1027       C  0.53631051  0.08523984  0.42612618     0.99400
N1028       N  0.97402909  0.48919968  0.37716352    -0.05900
N1029       N  0.95961341  0.47992524  0.40766991    -0.61300
N1030       N  0.97562096  0.01954905  0.62016462    -0.05200
N1031       N  0.96231463  0.03034692  0.58948301    -0.58000
N1032       N  0.97420272  0.48942708  0.61994821    -0.06500
N1033       N  0.95977764  0.48025121  0.58934293    -0.60900
N1034       N  0.97549586  0.01942008  0.37727726    -0.05500
N1035       N  0.96228099  0.03019039  0.40756749    -0.58000
Mn1036     Mn  0.99594435  0.46443563  0.66564993     1.20200
Mn1037     Mn  0.99992534  0.04195659  0.33229240     1.10100
Cl1038     Cl  0.53499262  0.00185116  0.66551890    -0.86000
C1039       C  0.95173896  0.50387408  0.42577688     0.96300
C1040       C  0.95168478  0.00744784  0.57113350     0.96100
C1041       C  0.51254880  0.22212473  0.51744835    -0.14400
C1042       C  0.53250245  0.23638352  0.49443541     0.16000
C1043       C  0.55168531  0.22078193  0.47208066     0.02300
C1044       C  0.55104894  0.19129636  0.47358762    -0.12900
C1045       C  0.53125704  0.17681850  0.49677792    -0.04000
C1046       C  0.51165861  0.19254480  0.51869205     0.01500
C1047       C  0.53414498  0.26750541  0.49580449     0.08300
N1048       N  0.57156167  0.23464114  0.44712711     0.64700
H1049       H  0.56626691  0.17959683  0.45657186     0.17600
N1050       N  0.98926972  0.17564468  0.54017492     0.75200
H1051       H  0.99403378  0.23118765  0.53423108     0.09100
C1052       C  0.51491006  0.28452979  0.47496533     0.02800
C1053       C  0.51697306  0.31394590  0.47726846    -0.05900
C1054       C  0.53815238  0.32687401  0.49997075    -0.24300
C1055       C  0.55737613  0.30968289  0.52097315     0.12100
C1056       C  0.55517478  0.28024391  0.51873423    -0.13400
N1057       N  0.49381865  0.27222481  0.45031211     0.63700
H1058       H  0.50203277  0.32680477  0.46093718     0.11600
N1059       N  0.58012796  0.32171611  0.54295833     0.60400
H1060       H  0.57016547  0.26720062  0.53470276     0.07800
O1061       O  0.96682120  0.16821794  0.52296300    -0.41100
O1062       O  0.99005885  0.17577365  0.57708642    -0.40300
O1063       O  0.59745880  0.23444790  0.45602500    -0.40200
O1064       O  0.56409892  0.24186459  0.41300662    -0.38000
O1065       O  0.60388214  0.32492361  0.52695410    -0.38900
O1066       O  0.57839505  0.32290736  0.57973758    -0.35000
O1067       O  0.96328826  0.26759418  0.46480530    -0.36400
O1068       O  0.49926706  0.26793399  0.41476228    -0.40700
C1069       C  0.75495630  0.48311216  0.48194714    -0.14400
C1070       C  0.76966333  0.50467304  0.50131176     0.16000
C1071       C  0.75347200  0.02291399  0.51978550     0.02300
C1072       C  0.72397126  0.02119862  0.51895501    -0.12900
C1073       C  0.71005321  0.50411641  0.49979690    -0.04000
C1074       C  0.72536685  0.48268154  0.48094972     0.01500
C1075       C  0.80085518  0.00373598  0.50056983     0.08300
N1076       N  0.76674993  0.04559691  0.54027145     0.64700
H1077       H  0.71177358  0.03736500  0.53340549     0.17600
N1078       N  0.71124061  0.45991871  0.46174139     0.75200
H1079       H  0.76654647  0.46660675  0.46728279     0.09100
C1080       C  0.81696088  0.48388152  0.51900832     0.02800
C1081       C  0.84645807  0.48505685  0.51778623    -0.05900
C1082       C  0.86044146  0.50683674  0.49761572    -0.24300
C1083       C  0.84344380  0.02781365  0.47805935     0.12100
C1084       C  0.81395214  0.02579520  0.47988428    -0.13400
N1085       N  0.80360809  0.46122808  0.53968972     0.63700
H1086       H  0.85857172  0.46869335  0.53250845     0.11600
N1087       N  0.85588445  0.05072479  0.45679389     0.60400
H1088       H  0.80113163  0.04149126  0.46481883     0.07800
O1089       O  0.70680178  0.43723717  0.48031172    -0.41100
O1090       O  0.70928337  0.46007511  0.42490168    -0.40300
O1091       O  0.76561842  0.07028887  0.52629816    -0.40200
O1092       O  0.77463940  0.04193373  0.57526161    -0.38000
O1093       O  0.85716112  0.04953326  0.41997130    -0.38900
O1094       O  0.85932275  0.07417236  0.47343276    -0.35000
O1095       O  0.80162105  0.43733891  0.52382992    -0.36400
O1096       O  0.79952656  0.46338075  0.57598580    -0.40700
C1097       C  0.67876736  0.50466772  0.83324133     0.03100
C1098       C  0.66418497  0.50620193  0.86888318    -0.13100
C1099       C  0.63458893  0.99965497  0.86922519     0.00600
C1100       C  0.61951084  0.99958505  0.83385703    -0.11600
C1101       C  0.63391123  0.99888798  0.79821030     0.03100
C1102       C  0.66344554  0.50521053  0.79793265    -0.11000
H1103       H  0.67577554  0.50541949  0.89631809     0.08700
H1104       H  0.59661842  0.00016762  0.83406913     0.06200
H1105       H  0.67444037  0.50432978  0.77026125     0.06000
C1106       C  0.89171271  0.50713430  0.83092006     0.03100
C1107       C  0.90665318  0.50619065  0.79559696    -0.13100
C1108       C  0.93618711  0.50458492  0.79592788     0.00600
C1109       C  0.95093559  0.50396167  0.83155577    -0.11600
C1110       C  0.93622927  0.50492110  0.86691733     0.03100
C1111       C  0.90668945  0.50646730  0.86657918    -0.11000
H1112       H  0.89533755  0.50607162  0.76793871     0.08700
H1113       H  0.97380183  0.50276659  0.83175412     0.06200
H1114       H  0.89534802  0.50702058  0.89401314     0.06000
C1115       C  0.53200100  0.14548798  0.83106270     0.03100
C1116       C  0.53290169  0.13033304  0.79583651    -0.13100
C1117       C  0.53612670  0.10096016  0.79626754     0.00600
C1118       C  0.53827916  0.08650102  0.83201724    -0.11600
C1119       C  0.53694546  0.10128967  0.86727733     0.03100
C1120       C  0.53388341  0.13070406  0.86679916    -0.11000
H1121       H  0.53127463  0.14142026  0.76807155     0.08700
H1122       H  0.54034380  0.06372239  0.83241298     0.06200
H1123       H  0.53357716  0.14204625  0.89419673     0.06000
C1124       C  0.54023600  0.35815698  0.83343668     0.03100
C1125       C  0.54080452  0.37320841  0.86875751    -0.13100
C1126       C  0.54217652  0.40278741  0.86838843     0.00600
C1127       C  0.54276319  0.41745187  0.83266631    -0.11600
C1128       C  0.54157215  0.40269313  0.79736129     0.03100
C1129       C  0.54034849  0.37317204  0.79778088    -0.11000
H1130       H  0.53952570  0.36202280  0.89645188     0.08700
H1131       H  0.54339020  0.44032687  0.83234778     0.06200
H1132       H  0.53951470  0.36188661  0.77032522     0.06000
N1133       N  0.59577555  0.01416671  0.71196733    -0.06200
N1134       N  0.61001044  0.02341334  0.74268918    -0.58300
N1135       N  0.59716998  0.49257513  0.95505356    -0.05800
N1136       N  0.61221707  0.48382314  0.92516450    -0.60400
N1137       N  0.59647247  0.01451519  0.95476803    -0.05400
N1138       N  0.61108960  0.02395066  0.92452028    -0.58300
N1139       N  0.59652843  0.49212945  0.71180636    -0.05100
N1140       N  0.61123583  0.48312906  0.74232356    -0.60800
C1141       C  0.61801427  0.50710239  0.76136789     0.96000
C1142       C  0.61929617  0.00011385  0.90638805     0.95800
N1143       N  0.52574271  0.44037160  0.95364495    -0.06400
N1144       N  0.51704219  0.42544248  0.92338513    -0.58900
N1145       N  0.55310490  0.44210941  0.71118473    -0.04500
N1146       N  0.56371063  0.42884576  0.74202290    -0.60100
N1147       N  0.52539041  0.43992779  0.71065355    -0.06400
N1148       N  0.51653961  0.42500511  0.74102247    -0.59100
N1149       N  0.55346906  0.44251566  0.95386756    -0.04100
N1150       N  0.56422564  0.42916308  0.92362671    -0.60200
Mn1151     Mn  0.57582459  0.46668136  0.99962352     1.18400
C1152       C  0.54124956  0.41852386  0.90514120     0.98100
C1153       C  0.54067525  0.41819610  0.76011259     0.98800
N1154       N  0.55060855  0.06239927  0.95355572    -0.06400
N1155       N  0.56062121  0.07635339  0.92296183    -0.62700
N1156       N  0.52236915  0.06280919  0.71022332    -0.05200
N1157       N  0.51266448  0.07719213  0.74018613    -0.63400
N1158       N  0.55014850  0.06209313  0.71105933    -0.05900
N1159       N  0.55994039  0.07586243  0.74181584    -0.63000
N1160       N  0.52282203  0.06302964  0.95343720    -0.04800
N1161       N  0.51332337  0.07749571  0.92301423    -0.63700
Mn1162     Mn  0.57404527  0.03904793  0.99949906     1.10700
C1163       C  0.53708553  0.08575448  0.90448920     0.99300
C1164       C  0.53631048  0.08523993  0.75945958     0.99400
N1165       N  0.97402925  0.48919980  0.71049680    -0.05900
N1166       N  0.95961355  0.47992534  0.74100316    -0.61300
N1167       N  0.97562092  0.01954885  0.95349797    -0.05200
N1168       N  0.96231462  0.03034672  0.92281634    -0.58000
N1169       N  0.97420270  0.48942693  0.95328149    -0.06500
N1170       N  0.95977764  0.48025110  0.92267616    -0.60900
N1171       N  0.97549594  0.01942014  0.71061060    -0.05500
N1172       N  0.96228106  0.03019040  0.74090086    -0.58000
Mn1173     Mn  0.99594431  0.46443544  0.99898320     1.20200
Mn1174     Mn  0.99992542  0.04195671  0.66562577     1.10100
Cl1175     Cl  0.53499253  0.00185101  0.99885222    -0.86000
C1176       C  0.95173909  0.50387417  0.75911015     0.96300
C1177       C  0.95168480  0.00744764  0.90446681     0.96100
C1178       C  0.51254845  0.22212473  0.85078180    -0.14400
C1179       C  0.53250217  0.23638351  0.82776895     0.16000
C1180       C  0.55168508  0.22078192  0.80541430     0.02300
C1181       C  0.55104869  0.19129635  0.80692124    -0.12900
C1182       C  0.53125673  0.17681849  0.83011144    -0.04000
C1183       C  0.51165826  0.19254480  0.85202550     0.01500
C1184       C  0.53414472  0.26750541  0.82913800     0.08300
N1185       N  0.57156151  0.23464111  0.78046084     0.64700
H1186       H  0.56626670  0.17959682  0.78990556     0.17600
N1187       N  0.98926919  0.17564468  0.87350846     0.75200
H1188       H  0.99403317  0.23118763  0.86756425     0.09100
C1189       C  0.51490965  0.28452982  0.80829913     0.02800
C1190       C  0.51697279  0.31394592  0.81060211    -0.05900
C1191       C  0.53815234  0.32687400  0.83330401    -0.24300
C1192       C  0.55737622  0.30968285  0.85430615     0.12100
C1193       C  0.55517476  0.28024388  0.85206732    -0.13400
N1194       N  0.49381795  0.27222486  0.78364637     0.63700
H1195       H  0.50203238  0.32680483  0.79427101     0.11600
N1196       N  0.58012823  0.32171605  0.87629099     0.60400
H1197       H  0.57016559  0.26720056  0.86803564     0.07800
O1198       O  0.96682079  0.16821762  0.85629651    -0.41100
O1199       O  0.99005820  0.17577396  0.91041996    -0.40300
O1200       O  0.59745855  0.23444825  0.78935919    -0.40200
O1201       O  0.56409898  0.24186413  0.74634008    -0.38000
O1202       O  0.60388241  0.32492312  0.86028660    -0.38900
O1203       O  0.57839545  0.32290761  0.91307023    -0.35000
O1204       O  0.96328729  0.26759437  0.79814035    -0.36400
O1205       O  0.49926600  0.26793391  0.74809646    -0.40700
C1206       C  0.75495633  0.48311180  0.81528063    -0.14400
C1207       C  0.76966339  0.50467274  0.83464509     0.16000
C1208       C  0.75347208  0.02291369  0.85311884     0.02300
C1209       C  0.72397134  0.02119834  0.85228849    -0.12900
C1210       C  0.71005326  0.50411608  0.83313043    -0.04000
C1211       C  0.72536687  0.48268115  0.81428336     0.01500
C1212       C  0.80085523  0.00373561  0.83390313     0.08300
N1213       N  0.76675006  0.04559668  0.87360458     0.64700
H1214       H  0.71177373  0.03736471  0.86673887     0.17600
N1215       N  0.71124061  0.45991821  0.79507533     0.75200
H1216       H  0.76654645  0.46660640  0.80061633     0.09100
C1217       C  0.81696100  0.48388119  0.85234131     0.02800
C1218       C  0.84645820  0.48505658  0.85111924    -0.05900
C1219       C  0.86044153  0.50683660  0.83094889    -0.24300
C1220       C  0.84344385  0.02781334  0.81139275     0.12100
C1221       C  0.81395218  0.02579488  0.81321765    -0.13400
N1222       N  0.80360828  0.46122759  0.87302250     0.63700
H1223       H  0.85857185  0.46869309  0.86584125     0.11600
N1224       N  0.85588449  0.05072461  0.79012755     0.60400
H1225       H  0.80113170  0.04149093  0.79815229     0.07800
O1226       O  0.70680221  0.43723662  0.81364574    -0.41100
O1227       O  0.70928296  0.46007460  0.75823566    -0.40300
O1228       O  0.76561955  0.07028839  0.85963024    -0.40200
O1229       O  0.77463837  0.04193405  0.90859533    -0.38000
O1230       O  0.85716210  0.04953283  0.75330505    -0.38900
O1231       O  0.85932169  0.07417241  0.80676621    -0.35000
O1232       O  0.80162039  0.43733879  0.85716185    -0.36400
O1233       O  0.79952784  0.46337958  0.90931890    -0.40700
C1234       C  0.67881567  0.99811502  0.16656738     0.03100
C1235       C  0.66417031  0.99900321  0.20222305    -0.13100
C1236       C  0.63469807  0.50856034  0.20255232     0.00600
C1237       C  0.61965080  0.50952719  0.16716984    -0.11600
C1238       C  0.63396374  0.50766331  0.13154194     0.03100
C1239       C  0.66349020  0.99811482  0.13124482    -0.11000
H1240       H  0.67578699  0.99915553  0.22964911     0.08700
H1241       H  0.59679960  0.51092667  0.16738518     0.06200
H1242       H  0.67453576  0.99821849  0.10356828     0.06000
C1243       C  0.89155779  0.00919455  0.16458095     0.03100
C1244       C  0.90655140  0.00883712  0.12927194    -0.13100
C1245       C  0.93613086  0.00846649  0.12960824     0.00600
C1246       C  0.95088254  0.00849823  0.16524269    -0.11600
C1247       C  0.93612874  0.00858572  0.20060562     0.03100
C1248       C  0.90654123  0.00889127  0.20025262    -0.11000
H1249       H  0.89526088  0.00810686  0.10160839     0.08700
H1250       H  0.97377760  0.00798696  0.16545102     0.06200
H1251       H  0.89517811  0.00871651  0.22768093     0.06000
C1252       C  0.52368836  0.64528206  0.16440666     0.03100
C1253       C  0.52457668  0.63015105  0.12914098    -0.13100
C1254       C  0.52735111  0.60072628  0.12953917     0.00600
C1255       C  0.52906225  0.58620114  0.16527786    -0.11600
C1256       C  0.52813757  0.60099980  0.20055493     0.03100
C1257       C  0.52554567  0.63045728  0.20012184    -0.11000
H1258       H  0.52334148  0.64129056  0.10138028     0.08700
H1259       H  0.53112130  0.56342234  0.16564280     0.06200
H1260       H  0.52564865  0.64180201  0.22752492     0.06000
C1261       C  0.53109414  0.85801378  0.16663345     0.03100
C1262       C  0.53172694  0.87299750  0.20201201    -0.13100
C1263       C  0.53280486  0.90258339  0.20172275     0.00600
C1264       C  0.53304967  0.91731877  0.16605589    -0.11600
C1265       C  0.53214953  0.90261211  0.13070641     0.03100
C1266       C  0.53118727  0.87308195  0.13102222    -0.11000
H1267       H  0.53084708  0.86174758  0.22968956     0.08700
H1268       H  0.53381216  0.94019111  0.16581182     0.06200
H1269       H  0.53067038  0.86182510  0.10353366     0.06000
N1270       N  0.59447436  0.51981586  0.04543046    -0.06200
N1271       N  0.60761173  0.53024145  0.07637258    -0.58300
N1272       N  0.59565680  0.98674937  0.28825091    -0.05800
N1273       N  0.60967757  0.97670057  0.25816436    -0.60400
N1274       N  0.59519131  0.52026856  0.28795377    -0.05400
N1275       N  0.60874866  0.53094367  0.25749918    -0.58300
N1276       N  0.59503840  0.98640009  0.04528203    -0.05100
N1277       N  0.60876242  0.97615041  0.07595577    -0.60800
C1278       C  0.61801739  0.99947055  0.09464938     0.96000
C1279       C  0.61938478  0.50794072  0.23970545     0.95800
N1280       N  0.51967253  0.94156835  0.28692524    -0.06400
N1281       N  0.50965898  0.92758821  0.25653322    -0.58900
N1282       N  0.54706279  0.94069031  0.04447341    -0.04500
N1283       N  0.55640180  0.92641161  0.07520823    -0.60100
N1284       N  0.51927761  0.94126454  0.04408799    -0.06400
N1285       N  0.50910179  0.92735057  0.07457944    -0.59100
N1286       N  0.54746290  0.94096424  0.28736029    -0.04100
N1287       N  0.55695623  0.92654695  0.25726900    -0.60200
Mn1288     Mn  0.57200180  0.96297490  0.33298881     1.18400
C1289       C  0.53313675  0.91824822  0.23855265     0.98100
C1290       C  0.53251071  0.91815121  0.09348685     0.98800
N1291       N  0.54502737  0.56363664  0.28697515    -0.06400
N1292       N  0.55374207  0.57854279  0.25648516    -0.62700
N1293       N  0.51686881  0.56127904  0.04369169    -0.05200
N1294       N  0.50591406  0.57465803  0.07374619    -0.63400
N1295       N  0.54459632  0.56331919  0.04428384    -0.05900
N1296       N  0.55310752  0.57810828  0.07481903    -0.63000
N1297       N  0.51730105  0.56152304  0.28668913    -0.04800
N1298       N  0.50654648  0.57492310  0.25610714    -0.63700
Mn1299     Mn  0.57055180  0.54258436  0.33282215     1.10700
C1300       C  0.52947927  0.58552276  0.23777818     0.99300
C1301       C  0.52875058  0.58511060  0.09269586     0.99400
N1302       N  0.97329491  0.99173020  0.04415029    -0.05900
N1303       N  0.95845937  0.98304909  0.07457825    -0.61300
N1304       N  0.97512335  0.51718850  0.28658753    -0.05200
N1305       N  0.96132134  0.52749963  0.25601977    -0.58000
N1306       N  0.97343294  0.99185181  0.28706472    -0.06500
N1307       N  0.95853940  0.98321289  0.25659199    -0.60900
N1308       N  0.97500805  0.51695516  0.04354013    -0.05500
N1309       N  0.96128753  0.52718223  0.07374339    -0.58000
Mn1310     Mn  0.99416105  0.96604226  0.33274520     1.20200
Mn1311     Mn  0.99849628  0.54052334  0.99866491     1.10100
Cl1312     Cl  0.53524447  0.50183487  0.33220885    -0.86000
C1313       C  0.95168792  0.00727829  0.09281747     0.96300
C1314       C  0.95180135  0.50423213  0.23743947     0.96100
C1315       C  0.50429642  0.72192586  0.18418761    -0.14400
C1316       C  0.52414303  0.73620000  0.16102580     0.16000
C1317       C  0.54332954  0.72061015  0.13865626     0.02300
C1318       C  0.54276251  0.69111867  0.14023759    -0.12900
C1319       C  0.52304644  0.67662543  0.16354334    -0.04000
C1320       C  0.50349145  0.69234977  0.18554199     0.01500
C1321       C  0.52564996  0.76733418  0.16225269     0.08300
N1322       N  0.56310406  0.73448408  0.11356475     0.64700
H1323       H  0.55795612  0.67943111  0.12316568     0.17600
N1324       N  0.98519186  0.67565771  0.20625027     0.75200
H1325       H  0.98977376  0.73120853  0.20035461     0.09100
C1326       C  0.50617873  0.78423347  0.14163105     0.02800
C1327       C  0.50807834  0.81366385  0.14388511    -0.05900
C1328       C  0.52928234  0.82672303  0.16638993    -0.24300
C1329       C  0.54873279  0.80966355  0.18718205     0.12100
C1330       C  0.54672437  0.78021291  0.18495179    -0.13400
N1331       N  0.48495711  0.77178921  0.11732743     0.63700
H1332       H  0.49296257  0.82643246  0.12772844     0.11600
N1333       N  0.57148327  0.82185773  0.20899448     0.60400
H1334       H  0.56187928  0.76727190  0.20077843     0.07800
O1335       O  0.96272959  0.66841478  0.18892355    -0.41100
O1336       O  0.98594875  0.67557571  0.24316573    -0.40300
O1337       O  0.58897408  0.73471789  0.12261963    -0.40200
O1338       O  0.55565532  0.74128320  0.07927412    -0.38000
O1339       O  0.59498755  0.82577867  0.19257979    -0.38900
O1340       O  0.57009646  0.82263216  0.24583090    -0.35000
O1341       O  0.95903425  0.76733310  0.13325458    -0.36400
O1342       O  0.49008988  0.76762319  0.08165527    -0.40700
C1343       C  0.75586531  0.97992124  0.14855860    -0.14400
C1344       C  0.76964511  0.00205640  0.16795562     0.16000
C1345       C  0.75439089  0.52620011  0.18647323     0.02300
C1346       C  0.72485541  0.52572249  0.18565138    -0.12900
C1347       C  0.71010149  0.99899830  0.16641343    -0.04000
C1348       C  0.72631891  0.97824971  0.14755100     0.01500
C1349       C  0.80090958  0.50511881  0.16711872     0.08300
N1350       N  0.76860759  0.54834690  0.20690224     0.64700
H1351       H  0.71336205  0.54240662  0.20007743     0.17600
N1352       N  0.71316599  0.95491072  0.12836821     0.75200
H1353       H  0.76815112  0.96391182  0.13391564     0.09100
C1354       C  0.81767698  0.98323776  0.18608398     0.02800
C1355       C  0.84711204  0.98553084  0.18492688    -0.05900
C1356       C  0.86030364  0.00770803  0.16456079    -0.24300
C1357       C  0.84434559  0.52767483  0.14471598     0.12100
C1358       C  0.81480509  0.52677928  0.14661070    -0.13400
N1359       N  0.80515336  0.96021390  0.20697632     0.63700
H1360       H  0.85982630  0.96969070  0.19986842     0.11600
N1361       N  0.85762847  0.55020831  0.12365939     0.60400
H1362       H  0.80259281  0.54301927  0.13177702     0.07800
O1363       O  0.70974173  0.93204883  0.14692538    -0.41100
O1364       O  0.71107413  0.95503204  0.09154222    -0.40300
O1365       O  0.76813608  0.57313279  0.19317561    -0.40200
O1366       O  0.77674119  0.54426053  0.24169923    -0.38000
O1367       O  0.85879502  0.54918084  0.08681815    -0.38900
O1368       O  0.86206338  0.57339526  0.14056499    -0.35000
O1369       O  0.80397360  0.93621420  0.19129949    -0.36400
O1370       O  0.80104203  0.96236217  0.24326642    -0.40700
C1371       C  0.67881572  0.99811498  0.49990067     0.03100
C1372       C  0.66417036  0.99900329  0.53555633    -0.13100
C1373       C  0.63469814  0.50856042  0.53588562     0.00600
C1374       C  0.61965086  0.50952724  0.50050316    -0.11600
C1375       C  0.63396377  0.50766329  0.46487524     0.03100
C1376       C  0.66349023  0.99811471  0.46457811    -0.11000
H1377       H  0.67578705  0.99915565  0.56298239     0.08700
H1378       H  0.59679965  0.51092674  0.50071852     0.06200
H1379       H  0.67453579  0.99821831  0.43690156     0.06000
C1380       C  0.89155783  0.00919478  0.49791435     0.03100
C1381       C  0.90655144  0.00883740  0.46260533    -0.13100
C1382       C  0.93613090  0.00846674  0.46294164     0.00600
C1383       C  0.95088257  0.00849845  0.49857608    -0.11600
C1384       C  0.93612878  0.00858591  0.53393901     0.03100
C1385       C  0.90654126  0.00889146  0.53358602    -0.11000
H1386       H  0.89526091  0.00810717  0.43494181     0.08700
H1387       H  0.97377766  0.00798716  0.49878440     0.06200
H1388       H  0.89517814  0.00871665  0.56101433     0.06000
C1389       C  0.52368818  0.64528218  0.49773986     0.03100
C1390       C  0.52457650  0.63015111  0.46247423    -0.13100
C1391       C  0.52735110  0.60072636  0.46287250     0.00600
C1392       C  0.52906239  0.58620128  0.49861124    -0.11600
C1393       C  0.52813768  0.60099999  0.53388826     0.03100
C1394       C  0.52554562  0.63045746  0.53345508    -0.11000
H1395       H  0.52334118  0.64129057  0.43471349     0.08700
H1396       H  0.53112154  0.56342250  0.49897624     0.06200
H1397       H  0.52564858  0.64180224  0.56085813     0.06000
C1398       C  0.53109404  0.85801388  0.49996685     0.03100
C1399       C  0.53172701  0.87299761  0.53534540    -0.13100
C1400       C  0.53280507  0.90258349  0.53505612     0.00600
C1401       C  0.53304986  0.91731886  0.49938925    -0.11600
C1402       C  0.53214954  0.90261219  0.46403980     0.03100
C1403       C  0.53118714  0.87308205  0.46435560    -0.11000
H1404       H  0.53084715  0.86174768  0.56302298     0.08700
H1405       H  0.53381244  0.94019118  0.49914517     0.06200
H1406       H  0.53067012  0.86182521  0.43686709     0.06000
N1407       N  0.59447435  0.51981585  0.37876382    -0.06200
N1408       N  0.60761173  0.53024143  0.40970593    -0.58300
N1409       N  0.59565693  0.98674956  0.62158429    -0.05800
N1410       N  0.60967767  0.97670075  0.59149772    -0.60400
N1411       N  0.59519144  0.52026871  0.62128712    -0.05400
N1412       N  0.60874878  0.53094380  0.59083250    -0.58300
N1413       N  0.59503840  0.98640003  0.37861533    -0.05100
N1414       N  0.60876243  0.97615035  0.40928906    -0.60800
C1415       C  0.61801743  0.99947048  0.42798267     0.96000
C1416       C  0.61938488  0.50794084  0.57303878     0.95800
N1417       N  0.51967271  0.94156850  0.62025852    -0.06400
N1418       N  0.50965918  0.92758834  0.58986652    -0.58900
N1419       N  0.54706273  0.94069034  0.37780675    -0.04500
N1420       N  0.55640176  0.92641165  0.40854157    -0.60100
N1421       N  0.51927755  0.94126460  0.37742139    -0.06400
N1422       N  0.50910175  0.92735065  0.40791286    -0.59100
N1423       N  0.54746308  0.94096440  0.62069360    -0.04100
N1424       N  0.55695643  0.92654709  0.59060235    -0.60200
Mn1425     Mn  0.57200193  0.96297507  0.66632217     1.18400
C1426       C  0.53313696  0.91824834  0.57188600     0.98100
C1427       C  0.53251069  0.91815129  0.42682023     0.98800
N1428       N  0.54502749  0.56363683  0.62030850    -0.06400
N1429       N  0.55374219  0.57854301  0.58981854    -0.62700
N1430       N  0.51686879  0.56127908  0.37702503    -0.05200
N1431       N  0.50591405  0.57465810  0.40707952    -0.63400
N1432       N  0.54459631  0.56331919  0.37761722    -0.05900
N1433       N  0.55310751  0.57810827  0.40815243    -0.63000
N1434       N  0.51730118  0.56152323  0.62002247    -0.04800
N1435       N  0.50654661  0.57492331  0.58944050    -0.63700
Mn1436     Mn  0.57055192  0.54258451  0.66615552     1.10700
C1437       C  0.52947939  0.58552299  0.57111156     0.99300
C1438       C  0.52875057  0.58511062  0.42602922     0.99400
N1439       N  0.97329488  0.99173033  0.37748366    -0.05900
N1440       N  0.95845935  0.98304927  0.40791167    -0.61300
N1441       N  0.97512352  0.51718869  0.61992088    -0.05200
N1442       N  0.96132147  0.52749984  0.58935317    -0.58000
N1443       N  0.97343306  0.99185195  0.62039802    -0.06500
N1444       N  0.95853949  0.98321305  0.58992531    -0.60900
N1445       N  0.97500792  0.51695525  0.37687344    -0.05500
N1446       N  0.96128742  0.52718238  0.40707670    -0.58000
Mn1447     Mn  0.99416118  0.96604238  0.66607848     1.20200
Mn1448     Mn  0.99849613  0.54052337  0.33199817     1.10100
Cl1449     Cl  0.53524459  0.50183502  0.66554218    -0.86000
C1450       C  0.95168795  0.00727850  0.42615086     0.96300
C1451       C  0.95180146  0.50423235  0.57077287     0.96100
C1452       C  0.50429604  0.72192597  0.51752078    -0.14400
C1453       C  0.52414253  0.73620013  0.49435880     0.16000
C1454       C  0.54332898  0.72061033  0.47198912     0.02300
C1455       C  0.54276204  0.69111883  0.47357047    -0.12900
C1456       C  0.52304611  0.67662556  0.49687642    -0.04000
C1457       C  0.50349117  0.69234986  0.51887520     0.01500
C1458       C  0.52564951  0.76733431  0.49558585     0.08300
N1459       N  0.56310341  0.73448429  0.44689751     0.64700
H1460       H  0.55795557  0.67943135  0.45649853     0.17600
N1461       N  0.98519185  0.67565775  0.53958414     0.75200
H1462       H  0.98977369  0.73120856  0.53368851     0.09100
C1463       C  0.50617824  0.78423370  0.47496444     0.02800
C1464       C  0.50807796  0.81366407  0.47721863    -0.05900
C1465       C  0.52928209  0.82672315  0.49972332    -0.24300
C1466       C  0.54873255  0.80966356  0.52051525     0.12100
C1467       C  0.54672403  0.78021294  0.51828486    -0.13400
N1468       N  0.48495649  0.77178957  0.45066092     0.63700
H1469       H  0.49296212  0.82643280  0.46106205     0.11600
N1470       N  0.57148313  0.82185763  0.54232760     0.60400
H1471       H  0.56187899  0.76727182  0.53411138     0.07800
O1472       O  0.96272969  0.66841424  0.52225760    -0.41100
O1473       O  0.98594876  0.67557620  0.57649960    -0.40300
O1474       O  0.58897350  0.73471792  0.45595206    -0.40200
O1475       O  0.55565448  0.74128369  0.41260706    -0.38000
O1476       O  0.59498739  0.82577850  0.52591281    -0.38900
O1477       O  0.57009641  0.82263204  0.57916404    -0.35000
O1478       O  0.95903374  0.76733318  0.46658834    -0.36400
O1479       O  0.49008909  0.76762366  0.41498870    -0.40700
C1480       C  0.75586538  0.97992127  0.48189179    -0.14400
C1481       C  0.76964516  0.00205642  0.50128887     0.16000
C1482       C  0.75439089  0.52620015  0.51980669     0.02300
C1483       C  0.72485543  0.52572247  0.51898479    -0.12900
C1484       C  0.71010154  0.99899827  0.49974670    -0.04000
C1485       C  0.72631897  0.97824971  0.48088422     0.01500
C1486       C  0.80090964  0.50511901  0.50045215     0.08300
N1487       N  0.76860754  0.54834691  0.54023583     0.64700
H1488       H  0.71336201  0.54240656  0.53341095     0.17600
N1489       N  0.71316607  0.95491072  0.46170143     0.75200
H1490       H  0.76815118  0.96391190  0.46724878     0.09100
C1491       C  0.81767707  0.98323768  0.51941693     0.02800
C1492       C  0.84711212  0.98553083  0.51825988    -0.05900
C1493       C  0.86030370  0.00770821  0.49789417    -0.24300
C1494       C  0.84434564  0.52767531  0.47804993     0.12100
C1495       C  0.81480514  0.52677969  0.47994455    -0.13400
N1496       N  0.80515348  0.96021367  0.54030896     0.63700
H1497       H  0.85982642  0.96969058  0.53320120     0.11600
N1498       N  0.85762853  0.55020904  0.45699387     0.60400
H1499       H  0.80259287  0.54301979  0.46511113     0.07800
O1500       O  0.70974180  0.93204884  0.48025860    -0.41100
O1501       O  0.71107427  0.95503201  0.42487543    -0.40300
O1502       O  0.76813606  0.57313282  0.52650925    -0.40200
O1503       O  0.77674105  0.54426050  0.57503285    -0.38000
O1504       O  0.85879544  0.54918185  0.42015264    -0.38900
O1505       O  0.86206309  0.57339591  0.47389987    -0.35000
O1506       O  0.80397352  0.93621414  0.52463165    -0.36400
O1507       O  0.80104246  0.96236155  0.57659917    -0.40700
C1508       C  0.67881576  0.99811477  0.83323417     0.03100
C1509       C  0.66417037  0.99900305  0.86888980    -0.13100
C1510       C  0.63469817  0.50856026  0.86921902     0.00600
C1511       C  0.61965092  0.50952724  0.83383652    -0.11600
C1512       C  0.63396388  0.50766330  0.79820863     0.03100
C1513       C  0.66349030  0.99811468  0.79791157    -0.11000
H1514       H  0.67578706  0.99915529  0.89631592     0.08700
H1515       H  0.59679976  0.51092684  0.83405184     0.06200
H1516       H  0.67453587  0.99821831  0.77023507     0.06000
C1517       C  0.89155788  0.00919444  0.83124763     0.03100
C1518       C  0.90655150  0.00883712  0.79593862    -0.13100
C1519       C  0.93613096  0.00846664  0.79627494     0.00600
C1520       C  0.95088263  0.00849839  0.83190938    -0.11600
C1521       C  0.93612882  0.00858572  0.86727230     0.03100
C1522       C  0.90654130  0.00889114  0.86691931    -0.11000
H1523       H  0.89526098  0.00810682  0.76827507     0.08700
H1524       H  0.97377768  0.00798721  0.83211772     0.06200
H1525       H  0.89517817  0.00871627  0.89434761     0.06000
C1526       C  0.52368765  0.64528218  0.83107334     0.03100
C1527       C  0.52457617  0.63015115  0.79580769    -0.13100
C1528       C  0.52735103  0.60072642  0.79620590     0.00600
C1529       C  0.52906237  0.58620133  0.83194462    -0.11600
C1530       C  0.52813743  0.60099998  0.86722167     0.03100
C1531       C  0.52554510  0.63045743  0.86678854    -0.11000
H1532       H  0.52334082  0.64129063  0.76804695     0.08700
H1533       H  0.53112171  0.56342256  0.83230958     0.06200
H1534       H  0.52564788  0.64180218  0.89419161     0.06000
C1535       C  0.53109363  0.85801387  0.83330009     0.03100
C1536       C  0.53172674  0.87299761  0.86867862    -0.13100
C1537       C  0.53280504  0.90258347  0.86838933     0.00600
C1538       C  0.53304999  0.91731883  0.83272244    -0.11600
C1539       C  0.53214953  0.90261215  0.79737299     0.03100
C1540       C  0.53118681  0.87308201  0.79768883    -0.11000
H1541       H  0.53084682  0.86174768  0.89635622     0.08700
H1542       H  0.53381276  0.94019113  0.83247835     0.06200
H1543       H  0.53066963  0.86182513  0.77020033     0.06000
N1544       N  0.59447446  0.51981597  0.71209721    -0.06200
N1545       N  0.60761185  0.53024153  0.74303933    -0.58300
N1546       N  0.59565685  0.98674944  0.95491763    -0.05800
N1547       N  0.60967766  0.97670063  0.92483110    -0.60400
N1548       N  0.59519134  0.52026855  0.95462039    -0.05400
N1549       N  0.60874870  0.53094364  0.92416579    -0.58300
N1550       N  0.59503850  0.98640019  0.71194871    -0.05100
N1551       N  0.60876254  0.97615050  0.74262243    -0.60800
C1552       C  0.61801752  0.99947062  0.76131607     0.96000
C1553       C  0.61938486  0.50794068  0.90637213     0.95800
N1554       N  0.51967266  0.94156834  0.95359185    -0.06400
N1555       N  0.50965913  0.92758823  0.92319980    -0.58900
N1556       N  0.54706284  0.94069045  0.71114007    -0.04500
N1557       N  0.55640184  0.92641171  0.74187487    -0.60100
N1558       N  0.51927766  0.94126467  0.71075463    -0.06400
N1559       N  0.50910183  0.92735065  0.74124601    -0.59100
N1560       N  0.54746303  0.94096427  0.95402691    -0.04100
N1561       N  0.55695639  0.92654705  0.92393559    -0.60200
Mn1562     Mn  0.57200186  0.96297494  0.99965550     1.18400
C1563       C  0.53313692  0.91824831  0.90521921     0.98100
C1564       C  0.53251074  0.91815126  0.76015342     0.98800
N1565       N  0.54502735  0.56363667  0.95364176    -0.06400
N1566       N  0.55374202  0.57854289  0.92315181    -0.62700
N1567       N  0.51686888  0.56127922  0.71035836    -0.05200
N1568       N  0.50591409  0.57465821  0.74041283    -0.63400
N1569       N  0.54459639  0.56331932  0.71095060    -0.05900
N1570       N  0.55310755  0.57810839  0.74148586    -0.63000
N1571       N  0.51730104  0.56152309  0.95335581    -0.04800
N1572       N  0.50654643  0.57492324  0.92277392    -0.63700
Mn1573     Mn  0.57055182  0.54258436  0.99948876     1.10700
C1574       C  0.52947919  0.58552293  0.90444494     0.99300
C1575       C  0.52875058  0.58511073  0.75936260     0.99400
N1576       N  0.97329498  0.99173040  0.71081694    -0.05900
N1577       N  0.95845945  0.98304928  0.74124491    -0.61300
N1578       N  0.97512350  0.51718854  0.95325422    -0.05200
N1579       N  0.96132148  0.52749973  0.92268652    -0.58000
N1580       N  0.97343302  0.99185175  0.95373137    -0.06500
N1581       N  0.95853948  0.98321285  0.92325862    -0.60900
N1582       N  0.97500808  0.51695538  0.71020677    -0.05500
N1583       N  0.96128756  0.52718248  0.74041002    -0.58000
Mn1584     Mn  0.99416113  0.96604218  0.99941182     1.20200
Mn1585     Mn  0.99849629  0.54052353  0.66533152     1.10100
Cl1586     Cl  0.53524451  0.50183485  0.99887548    -0.86000
C1587       C  0.95168802  0.00727848  0.75948416     0.96300
C1588       C  0.95180148  0.50423227  0.90410615     0.96100
C1589       C  0.50429514  0.72192589  0.85085418    -0.14400
C1590       C  0.52414166  0.73620015  0.82769235     0.16000
C1591       C  0.54332823  0.72061040  0.80532278     0.02300
C1592       C  0.54276138  0.69111891  0.80690411    -0.12900
C1593       C  0.52304544  0.67662556  0.83020992    -0.04000
C1594       C  0.50349036  0.69234978  0.85220859     0.01500
C1595       C  0.52564862  0.76733433  0.82891947     0.08300
N1596       N  0.56310268  0.73448444  0.78023128     0.64700
H1597       H  0.55795504  0.67943148  0.78983222     0.17600
N1598       N  0.98519163  0.67565774  0.87291799     0.75200
H1599       H  0.98977331  0.73120855  0.86702196     0.09100
C1600       C  0.50617703  0.78423378  0.80829872     0.02800
C1601       C  0.50807693  0.81366415  0.81055271    -0.05900
C1602       C  0.52928150  0.82672316  0.83305667    -0.24300
C1603       C  0.54873222  0.80966353  0.85384804     0.12100
C1604       C  0.54672359  0.78021292  0.85161775    -0.13400
N1605       N  0.48495475  0.77178969  0.78399602     0.63700
H1606       H  0.49296092  0.82643292  0.79439661     0.11600
N1607       N  0.57148315  0.82185756  0.87565974     0.60400
H1608       H  0.56187876  0.76727179  0.86744376     0.07800
O1609       O  0.96272942  0.66841411  0.85559166    -0.41100
O1610       O  0.98594865  0.67557637  0.90983345    -0.40300
O1611       O  0.58897267  0.73471859  0.78928631    -0.40200
O1612       O  0.55565396  0.74128340  0.74594058    -0.38000
O1613       O  0.59498730  0.82577799  0.85924444    -0.38900
O1614       O  0.57009680  0.82263235  0.91249618    -0.35000
O1615       O  0.95903306  0.76733311  0.79992283    -0.36400
O1616       O  0.49008675  0.76762341  0.74832371    -0.40700
C1617       C  0.75586538  0.97992087  0.81522533    -0.14400
C1618       C  0.76964521  0.00205608  0.83462224     0.16000
C1619       C  0.75439097  0.52619988  0.85314001     0.02300
C1620       C  0.72485550  0.52572219  0.85231822    -0.12900
C1621       C  0.71010158  0.99899797  0.83308024    -0.04000
C1622       C  0.72631896  0.97824934  0.81421785     0.01500
C1623       C  0.80090971  0.50511873  0.83378536     0.08300
N1624       N  0.76860763  0.54834667  0.87356907     0.64700
H1625       H  0.71336211  0.54240629  0.86674432     0.17600
N1626       N  0.71316602  0.95491030  0.79503522     0.75200
H1627       H  0.76815111  0.96391151  0.80058239     0.09100
C1628       C  0.81767712  0.98323732  0.85275025     0.02800
C1629       C  0.84711218  0.98553046  0.85159317    -0.05900
C1630       C  0.86030374  0.00770784  0.83122744    -0.24300
C1631       C  0.84434567  0.52767524  0.81138334     0.12100
C1632       C  0.81480516  0.52677956  0.81327797    -0.13400
N1633       N  0.80515354  0.96021336  0.87364242     0.63700
H1634       H  0.85982646  0.96969024  0.86653447     0.11600
N1635       N  0.85762850  0.55020911  0.79032749     0.60400
H1636       H  0.80259289  0.54301967  0.79844478     0.07800
O1637       O  0.70974254  0.93204821  0.81359217    -0.41100
O1638       O  0.71107352  0.95503183  0.75820929    -0.40300
O1639       O  0.76813653  0.57313246  0.85984205    -0.40200
O1640       O  0.77674062  0.54426051  0.90836637    -0.38000
O1641       O  0.85879592  0.54918182  0.75348631    -0.38900
O1642       O  0.86206241  0.57339611  0.80723345    -0.35000
O1643       O  0.80397248  0.93621407  0.85796456    -0.36400
O1644       O  0.80104379  0.96236086  0.90993297    -0.40700
loop_ 
_geom_bond_atom_site_label_1 
_geom_bond_atom_site_label_2 
_geom_bond_distance 
_geom_bond_site_symmetry_2 
_ccdc_geom_bond_type 
C1            C2   1.407       .  A
C1            C6   1.405       .  A
C1          C114   1.482       .  S
C2          C414   1.401       .  A
C2            H7   1.084       .  S
C3            C4   1.400       .  A
C3          C413   1.402       .  A
C3           C46   1.467       .  S
C4            C5   1.400       .  A
C4            H8   1.085       .  S
C5          C417   1.401       .  A
C5          C456   1.464       .  S
C6          C416   1.401       .  A
C6            H9   1.084       .  S
C10          C11   1.404       .  A
C10          C15   1.406       .  A
C10         C123   1.480       .  S
C11          C12   1.401       .  A
C11          H16   1.084       .  S
C12          C13   1.400       .  A
C12          C80   1.462       .  S
C13          C14   1.400       .  A
C13          H17   1.084       .  S
C14          C15   1.401       .  A
C14         C492   1.466       .  S
C15          H18   1.084       .  S
C19          C20   1.407       .  A
C19          C24   1.406       .  A
C19          C86   1.486       .  S
C20          C21   1.401       .  A
C20          H25   1.084       .  S
C21          C22   1.401       .  A
C21          C68   1.468       .  S
C22          C23   1.402       .  A
C22          H26   1.084       .  S
C23          C24   1.403       .  A
C23          C67   1.466       .  S
C24          H27   1.084       .  S
C28          C29   1.407       .  A
C28          C33   1.407       .  A
C28          C95   1.485       .  S
C29          C30   1.403       .  A
C29          H34   1.084       .  S
C30          C31   1.401       .  A
C30          C56   1.466       .  S
C31          C32   1.400       .  A
C31          H35   1.084       .  S
C32          C33   1.401       .  A
C32          C57   1.466       .  S
C33          H36   1.084       .  S
N37          N38   1.321       .  A
N37         N454   1.316   1_545  A
N37        Mn340   2.204       .  S
N38         C456   1.351   1_545  A
N39          N40   1.320       .  A
N39         N452   1.316       .  A
N39         Mn55   2.201       .  S
N40         C457   1.351       .  A
N41          N42   1.321       .  A
N41         N450   1.317   1_545  A
N41         Mn66   2.207       .  S
N42          C46   1.352   1_545  A
N43          N44   1.320       .  A
N43         N448   1.316       .  A
N43        Mn329   2.200       .  S
N44          C45   1.350       .  A
C45         C416   1.464       .  S
C45         N449   1.352       .  A
C46         N451   1.351       .  A
N47          N53   1.316       .  A
N47          N48   1.321       .  A
N47        Mn899   2.206   1_455  S
N48          C56   1.352       .  A
N49          N50   1.321       .  A
N49          N51   1.316       .  A
N49        Mn329   2.202       .  S
N50          C57   1.351       .  A
N51          N52   1.322       .  A
N51       Mn1173   2.206   1_454  S
N52          C57   1.352       .  A
N53          N54   1.321       .  A
N53         Mn55   2.203       .  S
N54          C56   1.351       .  A
Mn55        N180   2.200       .  S
Mn55        N186   2.202       .  S
Mn55       Cl490   2.549       .  S
N58          N59   1.323       .  A
N58          N64   1.316       .  A
N58         Mn66   2.214       .  S
N59          C67   1.354       .  A
N60          N62   1.316       .  A
N60          N61   1.320       .  A
N60        Mn900   2.198   1_454  S
N61          C68   1.350       .  A
N62          N63   1.323       .  A
N62        Mn340   2.213       .  S
N63          C68   1.353       .  A
N64          N65   1.319       .  A
N64       Mn1037   2.193   1_455  S
N65          C67   1.349       .  A
Mn66        N174   2.204       .  S
Mn66        N199   2.213       .  S
Mn66        Cl79   2.549       .  S
N69          N70   1.322       .  A
N69         N486   1.316       .  A
N69        Mn351   2.207   1_554  S
N70          C80   1.352       .  A
N71          N72   1.321       .  A
N71         N484   1.316   1_545  A
N71        Mn215   2.204       .  S
N72          C81   1.351       .  A
N73          N74   1.322       .  A
N73         N482   1.316       .  A
N73         Mn77   2.208       .  S
N74         C492   1.352       .  A
N75          N76   1.320       .  A
N75         N480   1.316   1_545  A
N75         Mn78   2.196   1_554  S
N76         C491   1.350       .  A
Mn77        N869   2.203       .  S
Mn77       N1010   2.204       .  S
Mn77        N206   2.207       .  S
Mn77      Cl1312   2.550       .  S
Mn78        N882   2.200   1_556  S
Mn78       N1160   2.194       .  S
Mn78        N345   2.204       .  S
Mn78      Cl1175   2.549       .  S
Cl79       Mn466   2.549   1_545  S
Cl79      Mn1310   2.550   1_445  S
Cl79      Mn1037   2.549   1_455  S
C80         N487   1.349       .  A
C81         C425   1.466       .  S
C81         N485   1.352   1_545  A
C82          C83   1.401       .  A
C82          C87   1.403       .  A
C82         H914   1.086   1_455  S
C83          C84   1.407       .  A
C83          C88   1.479       .  S
C84          C85   1.398       .  A
C84          N89   1.428       .  S
C85          C86   1.404       .  A
C85          H90   1.085       .  S
C86          C87   1.414       .  A
C87         N913   1.429   1_455  S
C88          C93   1.407       .  A
C88          C97   1.401       .  A
N89         O104   1.262       .  A
N89         O105   1.262       .  A
N91         C909   1.429       .  S
N91         O102   1.262       .  A
N91         O103   1.262       .  A
H92         C904   1.086       .  S
C93          C94   1.401       .  A
C93          N98   1.428   1_455  S
C94          C95   1.405       .  A
C94          H99   1.085   1_455  S
C95          C96   1.413       .  A
C96          C97   1.401       .  A
C96         N100   1.429       .  S
C97         H101   1.086       .  S
N98         O109   1.262       .  A
N98         O930   1.262       .  A
N100        O106   1.262       .  A
N100        O107   1.262       .  A
O108        N920   1.262       .  A
C110        C111   1.402       .  A
C110        C115   1.401       .  A
C110        H120   1.085       .  S
C111        C523   1.409       .  A
C111        C527   1.480       .  S
C112        C113   1.399       .  A
C112        C522   1.409   1_545  A
C112        N117   1.429       .  S
C113        C525   1.403   1_545  A
C113        H118   1.085       .  S
C114        C115   1.412       .  A
C114        C524   1.403       .  A
C115        N119   1.429       .  S
C116        C125   1.402   1_565  A
C116        C532   1.409       .  A
C116        C522   1.480       .  S
N117        O132   1.262       .  A
N117        O133   1.262       .  A
N119        O130   1.262       .  A
N119        O131   1.262       .  A
C121        C122   1.398       .  A
C121        C527   1.409       .  A
C121        N126   1.428       .  S
C122        C123   1.403       .  A
C122        H127   1.086       .  S
C123        C535   1.412       .  A
C124        C125   1.401       .  A
C124        C534   1.413       .  A
C124        N128   1.429       .  S
C125        H129   1.087       .  S
N126        O136   1.262       .  A
N126        O137   1.262       .  A
N128        O134   1.262       .  A
N128        O135   1.262       .  A
C138        C139   1.407       .  A
C138        C143   1.405       .  A
C138        C251   1.482       .  S
C139        C551   1.401       .  A
C139        H144   1.084       .  S
C140        C550   1.402       .  A
C140        C141   1.400       .  A
C140        C183   1.467       .  S
C141        C142   1.400       .  A
C141        H145   1.085       .  S
C142        C554   1.401       .  A
C142        C593   1.464       .  S
C143        C553   1.401       .  A
C143        H146   1.084       .  S
C147        C148   1.404       .  A
C147        C152   1.406       .  A
C147        C260   1.480       .  S
C148        C149   1.401       .  A
C148        H153   1.084       .  S
C149        C150   1.400       .  A
C149        C217   1.462       .  S
C150        C151   1.400       .  A
C150        H154   1.084       .  S
C151        C152   1.401       .  A
C151        C629   1.466       .  S
C152        H155   1.084       .  S
C156        C157   1.407       .  A
C156        C161   1.406       .  A
C156        C223   1.486       .  S
C157        C158   1.401       .  A
C157        H162   1.084       .  S
C158        C159   1.401       .  A
C158        C205   1.468       .  S
C159        C160   1.402       .  A
C159        H163   1.084       .  S
C160        C161   1.403       .  A
C160        C204   1.466       .  S
C161        H164   1.084       .  S
C165        C166   1.407       .  A
C165        C170   1.407       .  A
C165        C232   1.485       .  S
C166        C167   1.403       .  A
C166        H171   1.084       .  S
C167        C168   1.401       .  A
C167        C193   1.466       .  S
C168        C169   1.400       .  A
C168        H172   1.084       .  S
C169        C170   1.401       .  A
C169        C194   1.466       .  S
C170        H173   1.084       .  S
N174        N175   1.321       .  A
N174        N591   1.316   1_545  A
N175        C593   1.351   1_545  A
N176        N589   1.316       .  A
N176        N177   1.320       .  A
N176       Mn192   2.201       .  S
N177        C594   1.351       .  A
N178        N587   1.317   1_545  A
N178        N179   1.321       .  A
N178       Mn203   2.207       .  S
N179        C183   1.352   1_545  A
N180        N585   1.316       .  A
N180        N181   1.320       .  A
N181        C182   1.350       .  A
C182        C553   1.464       .  S
C182        N586   1.352       .  A
C183        N588   1.351       .  A
N184        N190   1.316       .  A
N184        N185   1.321       .  A
N184      Mn1036   2.206   1_455  S
N185        C193   1.352       .  A
N186        N187   1.321       .  A
N186        N188   1.316       .  A
N187        C194   1.351       .  A
N188        N189   1.322       .  A
N188       Mn899   2.206   1_455  S
N189        C194   1.352       .  A
N190        N191   1.321       .  A
N190       Mn192   2.203       .  S
N191        C193   1.351       .  A
Mn192       N317   2.200       .  S
Mn192       N323   2.202       .  S
Mn192      Cl627   2.549       .  S
N195        N196   1.323       .  A
N195        N201   1.316       .  A
N195       Mn203   2.214       .  S
N196        C204   1.354       .  A
N197        N199   1.316       .  A
N197        N198   1.320       .  A
N197      Mn1037   2.198   1_455  S
N198        C205   1.350       .  A
N199        N200   1.323       .  A
N200        C205   1.353       .  A
N201        N202   1.319       .  A
N201      Mn1174   2.193   1_455  S
N202        C204   1.349       .  A
Mn203       N311   2.204       .  S
Mn203       N336   2.213       .  S
Mn203      Cl216   2.549       .  S
N206        N207   1.322       .  A
N206        N623   1.316       .  A
N207        C217   1.352       .  A
N208        N209   1.321       .  A
N208        N621   1.316   1_545  A
N208       Mn352   2.204       .  S
N209        C218   1.351       .  A
N210        N619   1.316       .  A
N210        N211   1.322       .  A
N210       Mn214   2.208       .  S
N211        C629   1.352       .  A
N212        N617   1.316   1_545  A
N212        N213   1.320       .  A
N212       Mn215   2.196       .  S
N213        C628   1.350       .  A
Mn214      N1006   2.203       .  S
Mn214      N1147   2.204       .  S
Mn214       N343   2.207       .  S
Mn214     Cl1449   2.550       .  S
Mn215      N1019   2.200       .  S
Mn215       N886   2.194       .  S
Mn215      Cl901   2.549       .  S
Cl216      Mn603   2.549   1_545  S
Cl216     Mn1447   2.550   1_445  S
Cl216     Mn1174   2.549   1_455  S
C217        N624   1.349       .  A
C218        C562   1.466       .  S
C218        N622   1.352   1_545  A
C219        C220   1.401       .  A
C219        C224   1.403       .  A
C219       H1051   1.086   1_455  S
C220        C221   1.407       .  A
C220        C225   1.479       .  S
C221        C222   1.398       .  A
C221        N226   1.428       .  S
C222        C223   1.404       .  A
C222        H227   1.085       .  S
C223        C224   1.414       .  A
C224       N1050   1.429   1_455  S
C225        C230   1.407       .  A
C225        C234   1.401       .  A
N226        O241   1.262       .  A
N226        O242   1.262       .  A
N228       C1046   1.429       .  S
N228        O239   1.262       .  A
N228        O240   1.262       .  A
H229       C1041   1.086       .  S
C230        C231   1.401       .  A
C230        N235   1.428   1_455  S
C231        C232   1.405       .  A
C231        H236   1.085   1_455  S
C232        C233   1.413       .  A
C233        C234   1.401       .  A
C233        N237   1.429       .  S
C234        H238   1.086       .  S
N235       O1067   1.262       .  A
N235        O246   1.262       .  A
N237        O243   1.262       .  A
N237        O244   1.262       .  A
O245       N1057   1.262       .  A
C247        C248   1.402       .  A
C247        C252   1.401       .  A
C247        H257   1.085       .  S
C248        C660   1.409       .  A
C248        C664   1.480       .  S
C249        C659   1.409   1_545  A
C249        C250   1.399       .  A
C249        N254   1.429       .  S
C250        C662   1.403   1_545  A
C250        H255   1.085       .  S
C251        C661   1.403       .  A
C251        C252   1.412       .  A
C252        N256   1.429       .  S
C253        C669   1.409       .  A
C253        C262   1.402   1_565  A
C253        C659   1.480       .  S
N254        O269   1.262       .  A
N254        O270   1.262       .  A
N256        O267   1.262       .  A
N256        O268   1.262       .  A
C258        C664   1.409       .  A
C258        C259   1.398       .  A
C258        N263   1.428       .  S
C259        C260   1.403       .  A
C259        H264   1.086       .  S
C260        C672   1.412       .  A
C261        C671   1.413       .  A
C261        C262   1.401       .  A
C261        N265   1.429       .  S
C262        H266   1.087       .  S
N263        O273   1.262       .  A
N263        O274   1.262       .  A
N265        O271   1.262       .  A
N265        O272   1.262       .  A
C275        C276   1.407       .  A
C275        C280   1.405       .  A
C275        C388   1.482       .  S
C276        C688   1.401       .  A
C276        H281   1.084       .  S
C277        C687   1.402       .  A
C277        C278   1.400       .  A
C277        C320   1.467       .  S
C278        C279   1.400       .  A
C278        H282   1.085       .  S
C279        C691   1.401       .  A
C279        C730   1.464       .  S
C280        C690   1.401       .  A
C280        H283   1.084       .  S
C284        C285   1.404       .  A
C284        C289   1.406       .  A
C284        C397   1.480       .  S
C285        C286   1.401       .  A
C285        H290   1.084       .  S
C286        C287   1.400       .  A
C286        C354   1.462       .  S
C287        C288   1.400       .  A
C287        H291   1.084       .  S
C288        C289   1.401       .  A
C288        C766   1.466       .  S
C289        H292   1.084       .  S
C293        C294   1.407       .  A
C293        C298   1.406       .  A
C293        C360   1.486       .  S
C294        C295   1.401       .  A
C294        H299   1.084       .  S
C295        C296   1.401       .  A
C295        C342   1.468       .  S
C296        C297   1.402       .  A
C296        H300   1.084       .  S
C297        C298   1.403       .  A
C297        C341   1.466       .  S
C298        H301   1.084       .  S
C302        C303   1.407       .  A
C302        C307   1.407       .  A
C302        C369   1.485       .  S
C303        C304   1.403       .  A
C303        H308   1.084       .  S
C304        C305   1.401       .  A
C304        C330   1.466       .  S
C305        C306   1.400       .  A
C305        H309   1.084       .  S
C306        C307   1.401       .  A
C306        C331   1.466       .  S
C307        H310   1.084       .  S
N311        N312   1.321       .  A
N311        N728   1.316   1_545  A
N312        C730   1.351   1_545  A
N313        N726   1.316       .  A
N313        N314   1.320       .  A
N313       Mn329   2.201   1_556  S
N314        C731   1.351       .  A
N315        N724   1.317   1_545  A
N315        N316   1.321       .  A
N315       Mn340   2.207   1_556  S
N316        C320   1.352   1_545  A
N317        N722   1.316       .  A
N317        N318   1.320       .  A
N318        C319   1.350       .  A
C319        C690   1.464       .  S
C319        N723   1.352       .  A
C320        N725   1.351       .  A
N321        N327   1.316       .  A
N321        N322   1.321       .  A
N321      Mn1173   2.206   1_455  S
N322        C330   1.352       .  A
N323        N324   1.321       .  A
N323        N325   1.316       .  A
N324        C331   1.351       .  A
N325        N326   1.322       .  A
N325      Mn1036   2.206   1_455  S
N326        C331   1.352       .  A
N327        N328   1.321       .  A
N327       Mn329   2.203   1_556  S
N328        C330   1.351       .  A
Mn329      Cl764   2.549   1_554  S
N332        N333   1.323       .  A
N332        N338   1.316       .  A
N332       Mn340   2.214   1_556  S
N333        C341   1.354       .  A
N334        N336   1.316       .  A
N334        N335   1.320       .  A
N334      Mn1174   2.198   1_455  S
N335        C342   1.350       .  A
N336        N337   1.323       .  A
N337        C342   1.353       .  A
N338        N339   1.319       .  A
N338       Mn900   2.193   1_455  S
N339        C341   1.349       .  A
Mn340      Cl353   2.549   1_554  S
N343        N344   1.322       .  A
N343        N760   1.316       .  A
N344        C354   1.352       .  A
N345        N346   1.321       .  A
N345        N758   1.316   1_545  A
N346        C355   1.351       .  A
N347        N756   1.316       .  A
N347        N348   1.322       .  A
N347       Mn351   2.208       .  S
N348        C766   1.352       .  A
N349        N754   1.316   1_545  A
N349        N350   1.320       .  A
N349       Mn352   2.196       .  S
N350        C765   1.350       .  A
Mn351      N1143   2.203       .  S
Mn351       N873   2.204   1_556  S
Mn351     Cl1586   2.550       .  S
Mn352      N1156   2.200       .  S
Mn352      N1023   2.194       .  S
Mn352     Cl1038   2.549       .  S
Cl353      Mn740   2.549   1_546  S
Cl353     Mn1584   2.550   1_445  S
Cl353      Mn900   2.549   1_455  S
C354        N761   1.349       .  A
C355        C699   1.466       .  S
C355        N759   1.352   1_545  A
C356        C357   1.401       .  A
C356        C361   1.403       .  A
C356       H1188   1.086   1_455  S
C357        C358   1.407       .  A
C357        C362   1.479       .  S
C358        C359   1.398       .  A
C358        N363   1.428       .  S
C359        C360   1.404       .  A
C359        H364   1.085       .  S
C360        C361   1.414       .  A
C361       N1187   1.429   1_455  S
C362        C367   1.407       .  A
C362        C371   1.401       .  A
N363        O378   1.262       .  A
N363        O379   1.262       .  A
N365       C1183   1.429       .  S
N365        O376   1.262       .  A
N365        O377   1.262       .  A
H366       C1178   1.086       .  S
C367        C368   1.401       .  A
C367        N372   1.428   1_455  S
C368        C369   1.405       .  A
C368        H373   1.085   1_455  S
C369        C370   1.413       .  A
C370        C371   1.401       .  A
C370        N374   1.429       .  S
C371        H375   1.086       .  S
N372       O1204   1.262       .  A
N372        O383   1.262       .  A
N374        O380   1.262       .  A
N374        O381   1.262       .  A
O382       N1194   1.262       .  A
C384        C385   1.402       .  A
C384        C389   1.401       .  A
C384        H394   1.085       .  S
C385        C797   1.409       .  A
C385        C801   1.480       .  S
C386        C796   1.409   1_545  A
C386        C387   1.399       .  A
C386        N391   1.429       .  S
C387        C799   1.403   1_545  A
C387        H392   1.085       .  S
C388        C798   1.403       .  A
C388        C389   1.412       .  A
C389        N393   1.429       .  S
C390        C806   1.409       .  A
C390        C399   1.402   1_565  A
C390        C796   1.480       .  S
N391        O406   1.262       .  A
N391        O407   1.262       .  A
N393        O404   1.262       .  A
N393        O405   1.262       .  A
C395        C801   1.409       .  A
C395        C396   1.398       .  A
C395        N400   1.428       .  S
C396        C397   1.403       .  A
C396        H401   1.086       .  S
C397        C809   1.412       .  A
C398        C808   1.413       .  A
C398        C399   1.401       .  A
C398        N402   1.429       .  S
C399        H403   1.087       .  S
N400        O410   1.262       .  A
N400        O411   1.262       .  A
N402        O408   1.262       .  A
N402        O409   1.262       .  A
C412        C413   1.407       .  A
C412        C417   1.405       .  A
C412        C525   1.482       .  S
C413        H418   1.084       .  S
C414        C415   1.400       .  A
C414        C457   1.466       .  S
C415        C416   1.400       .  A
C415        H419   1.084       .  S
C417        H420   1.084       .  S
C421        C422   1.404       .  A
C421        C426   1.407       .  A
C421        C534   1.481       .  S
C422        C423   1.401       .  A
C422        H427   1.084       .  S
C423        C424   1.400       .  A
C423        C491   1.462       .  S
C424        C425   1.400       .  A
C424        H428   1.084       .  S
C425        C426   1.401       .  A
C426        H429   1.084       .  S
C430        C431   1.407       .  A
C430        C435   1.406       .  A
C430        C497   1.485       .  S
C431        C432   1.401       .  A
C431        H436   1.084       .  S
C432        C433   1.400       .  A
C432        C479   1.468       .  S
C433        C434   1.401       .  A
C433        H437   1.084       .  S
C434        C435   1.403       .  A
C434        C478   1.466       .  S
C435        H438   1.084       .  S
C439        C440   1.407       .  A
C439        C444   1.406       .  A
C439        C506   1.484       .  S
C440        C441   1.403       .  A
C440        H445   1.084       .  S
C441        C442   1.401       .  A
C441        C467   1.466       .  S
C442        C443   1.400       .  A
C442        H446   1.084       .  S
C443        C444   1.401       .  A
C443        C468   1.466       .  S
C444        H447   1.084       .  S
N448        N449   1.321       .  A
N448       Mn751   2.206   1_554  S
N450        N451   1.321       .  A
N450       Mn466   2.204       .  S
N452        N453   1.322       .  A
N452       Mn477   2.209       .  S
N453        C457   1.352       .  A
N454        N455   1.321       .  A
N454       Mn740   2.202       .  S
N455        C456   1.351       .  A
N458        N464   1.316       .  A
N458        N459   1.321       .  A
N458      Mn1310   2.207   1_455  S
N459        C467   1.352       .  A
N460        N461   1.320       .  A
N460        N462   1.316       .  A
N460       Mn740   2.201       .  S
N461        C468   1.351       .  A
N462        N463   1.322       .  A
N462      Mn1584   2.207   1_454  S
N463        C468   1.352       .  A
N464        N465   1.321       .  A
N464       Mn466   2.202       .  S
N465        C467   1.351       .  A
Mn466       N591   2.202       .  S
Mn466       N597   2.201       .  S
N469        N470   1.323       .  A
N469        N475   1.316       .  A
N469       Mn477   2.212       .  S
N470        C478   1.354       .  A
N471        N473   1.316       .  A
N471        N472   1.320       .  A
N471      Mn1311   2.199   1_454  S
N472        C479   1.350       .  A
N473        N474   1.323       .  A
N473       Mn751   2.213   1_554  S
N474        C479   1.353       .  A
N475        N476   1.319       .  A
N475      Mn1448   2.194   1_455  S
N476        C478   1.349       .  A
Mn477       N585   2.206       .  S
Mn477       N610   2.213       .  S
Mn477      Cl490   2.548       .  S
N480        N481   1.321       .  A
N480       Mn762   2.204   1_554  S
N481        C491   1.352   1_565  A
N482        N483   1.320       .  A
N482       Mn626   2.201       .  S
N483        C492   1.351       .  A
N484        N485   1.321       .  A
N484       Mn488   2.206       .  S
N486        N487   1.319       .  A
N486       Mn489   2.193   1_554  S
Mn488      N1280   2.204       .  S
Mn488      N1421   2.205       .  S
Mn488       N617   2.204       .  S
Mn488      Cl901   2.550   1_565  S
Mn489      N1293   2.203   1_556  S
Mn489      N1571   2.197       .  S
Mn489       N756   2.201       .  S
Mn489     Cl1586   2.549       .  S
Cl490      Mn899   2.549   1_455  S
Cl490     Mn1448   2.550   1_455  S
C493        C494   1.402       .  A
C493        C498   1.403       .  A
C493       H1325   1.086   1_455  S
C494        C495   1.407       .  A
C494        C499   1.479       .  S
C495        C496   1.398       .  A
C495        N500   1.428       .  S
C496        C497   1.404       .  A
C496        H501   1.086       .  S
C497        C498   1.414       .  A
C498       N1324   1.429   1_455  S
C499        C504   1.407       .  A
C499        C508   1.401       .  A
N500        O515   1.262       .  A
N500        O516   1.262       .  A
N502       C1320   1.429       .  S
N502        O513   1.262       .  A
N502        O514   1.262       .  A
H503       C1315   1.086       .  S
C504        C505   1.400       .  A
C504        N509   1.428   1_455  S
C505        C506   1.405       .  A
C505        H510   1.085   1_455  S
C506        C507   1.412       .  A
C507        C508   1.401       .  A
C507        N511   1.429       .  S
C508        H512   1.086       .  S
N509       O1341   1.262       .  A
N509        O520   1.262       .  A
N511        O517   1.262       .  A
N511        O518   1.262       .  A
O519       N1331   1.262       .  A
C521        C522   1.402       .  A
C521        C526   1.401       .  A
C521        H531   1.085       .  S
C523        C524   1.399       .  A
C523        N528   1.429       .  S
C524        H529   1.085       .  S
C525        C526   1.412       .  A
C526        N530   1.429       .  S
C527        C536   1.402       .  A
N528        O543   1.262       .  A
N528        O544   1.262       .  A
N530        O541   1.262       .  A
N530        O542   1.262       .  A
C532        C533   1.398       .  A
C532        N537   1.428       .  S
C533        C534   1.403   1_565  A
C533        H538   1.087       .  S
C535        C536   1.401       .  A
C535        N539   1.429       .  S
C536        H540   1.086       .  S
N537        O547   1.262       .  A
N537        O548   1.262       .  A
N539        O545   1.262       .  A
N539        O546   1.262       .  A
C549        C550   1.407       .  A
C549        C554   1.405       .  A
C549        C662   1.482       .  S
C550        H555   1.084       .  S
C551        C552   1.400       .  A
C551        C594   1.466       .  S
C552        C553   1.400       .  A
C552        H556   1.084       .  S
C554        H557   1.084       .  S
C558        C559   1.404       .  A
C558        C563   1.407       .  A
C558        C671   1.481       .  S
C559        C560   1.401       .  A
C559        H564   1.084       .  S
C560        C561   1.400       .  A
C560        C628   1.462       .  S
C561        C562   1.400       .  A
C561        H565   1.084       .  S
C562        C563   1.401       .  A
C563        H566   1.084       .  S
C567        C568   1.407       .  A
C567        C572   1.406       .  A
C567        C634   1.485       .  S
C568        C569   1.401       .  A
C568        H573   1.084       .  S
C569        C570   1.400       .  A
C569        C616   1.468       .  S
C570        C571   1.401       .  A
C570        H574   1.084       .  S
C571        C572   1.403       .  A
C571        C615   1.466       .  S
C572        H575   1.084       .  S
C576        C577   1.407       .  A
C576        C581   1.406       .  A
C576        C643   1.484       .  S
C577        C578   1.403       .  A
C577        H582   1.084       .  S
C578        C579   1.401       .  A
C578        C604   1.466       .  S
C579        C580   1.400       .  A
C579        H583   1.084       .  S
C580        C581   1.401       .  A
C580        C605   1.466       .  S
C581        H584   1.084       .  S
N585        N586   1.321       .  A
N587        N588   1.321       .  A
N587       Mn603   2.204       .  S
N589        N590   1.322       .  A
N589       Mn614   2.209       .  S
N590        C594   1.352       .  A
N591        N592   1.321       .  A
N592        C593   1.351       .  A
N595        N601   1.316       .  A
N595        N596   1.321       .  A
N595      Mn1447   2.207   1_455  S
N596        C604   1.352       .  A
N597        N598   1.320       .  A
N597        N599   1.316       .  A
N598        C605   1.351       .  A
N599        N600   1.322       .  A
N599      Mn1310   2.207   1_455  S
N600        C605   1.352       .  A
N601        N602   1.321       .  A
N601       Mn603   2.202       .  S
N602        C604   1.351       .  A
Mn603       N728   2.202       .  S
Mn603       N734   2.201       .  S
N606        N607   1.323       .  A
N606        N612   1.316       .  A
N606       Mn614   2.212       .  S
N607        C615   1.354       .  A
N608        N610   1.316       .  A
N608        N609   1.320       .  A
N608      Mn1448   2.199   1_455  S
N609        C616   1.350       .  A
N610        N611   1.323       .  A
N611        C616   1.353       .  A
N612        N613   1.319       .  A
N612      Mn1585   2.194   1_455  S
N613        C615   1.349       .  A
Mn614       N722   2.206       .  S
Mn614       N747   2.213       .  S
Mn614      Cl627   2.548       .  S
N617        N618   1.321       .  A
N618        C628   1.352   1_565  A
N619        N620   1.320       .  A
N619       Mn763   2.201       .  S
N620        C629   1.351       .  A
N621        N622   1.321       .  A
N621       Mn625   2.206       .  S
N623        N624   1.319       .  A
N623       Mn626   2.193       .  S
Mn625      N1417   2.204       .  S
Mn625      N1558   2.205       .  S
Mn625       N754   2.204       .  S
Mn625     Cl1038   2.550   1_565  S
Mn626      N1430   2.203       .  S
Mn626      N1297   2.197       .  S
Mn626     Cl1312   2.549       .  S
Cl627     Mn1036   2.549   1_455  S
Cl627     Mn1585   2.550   1_455  S
C630        C631   1.402       .  A
C630        C635   1.403       .  A
C630       H1462   1.086   1_455  S
C631        C632   1.407       .  A
C631        C636   1.479       .  S
C632        C633   1.398       .  A
C632        N637   1.428       .  S
C633        C634   1.404       .  A
C633        H638   1.086       .  S
C634        C635   1.414       .  A
C635       N1461   1.429   1_455  S
C636        C641   1.407       .  A
C636        C645   1.401       .  A
N637        O652   1.262       .  A
N637        O653   1.262       .  A
N639       C1457   1.429       .  S
N639        O650   1.262       .  A
N639        O651   1.262       .  A
H640       C1452   1.086       .  S
C641        C642   1.400       .  A
C641        N646   1.428   1_455  S
C642        C643   1.405       .  A
C642        H647   1.085   1_455  S
C643        C644   1.412       .  A
C644        C645   1.401       .  A
C644        N648   1.429       .  S
C645        H649   1.086       .  S
N646       O1478   1.262       .  A
N646        O657   1.262       .  A
N648        O654   1.262       .  A
N648        O655   1.262       .  A
O656       N1468   1.262       .  A
C658        C659   1.402       .  A
C658        C663   1.401       .  A
C658        H668   1.085       .  S
C660        C661   1.399       .  A
C660        N665   1.429       .  S
C661        H666   1.085       .  S
C662        C663   1.412       .  A
C663        N667   1.429       .  S
C664        C673   1.402       .  A
N665        O680   1.262       .  A
N665        O681   1.262       .  A
N667        O678   1.262       .  A
N667        O679   1.262       .  A
C669        C670   1.398       .  A
C669        N674   1.428       .  S
C670        C671   1.403   1_565  A
C670        H675   1.087       .  S
C672        C673   1.401       .  A
C672        N676   1.429       .  S
C673        H677   1.086       .  S
N674        O684   1.262       .  A
N674        O685   1.262       .  A
N676        O682   1.262       .  A
N676        O683   1.262       .  A
C686        C687   1.407       .  A
C686        C691   1.405       .  A
C686        C799   1.482       .  S
C687        H692   1.084       .  S
C688        C689   1.400       .  A
C688        C731   1.466       .  S
C689        C690   1.400       .  A
C689        H693   1.084       .  S
C691        H694   1.084       .  S
C695        C696   1.404       .  A
C695        C700   1.407       .  A
C695        C808   1.481       .  S
C696        C697   1.401       .  A
C696        H701   1.084       .  S
C697        C698   1.400       .  A
C697        C765   1.462       .  S
C698        C699   1.400       .  A
C698        H702   1.084       .  S
C699        C700   1.401       .  A
C700        H703   1.084       .  S
C704        C705   1.407       .  A
C704        C709   1.406       .  A
C704        C771   1.485       .  S
C705        C706   1.401       .  A
C705        H710   1.084       .  S
C706        C707   1.400       .  A
C706        C753   1.468       .  S
C707        C708   1.401       .  A
C707        H711   1.084       .  S
C708        C709   1.403       .  A
C708        C752   1.466       .  S
C709        H712   1.084       .  S
C713        C714   1.407       .  A
C713        C718   1.406       .  A
C713        C780   1.484       .  S
C714        C715   1.403       .  A
C714        H719   1.084       .  S
C715        C716   1.401       .  A
C715        C741   1.466       .  S
C716        C717   1.400       .  A
C716        H720   1.084       .  S
C717        C718   1.401       .  A
C717        C742   1.466       .  S
C718        H721   1.084       .  S
N722        N723   1.321       .  A
N724        N725   1.321       .  A
N724       Mn740   2.204   1_556  S
N726        N727   1.322       .  A
N726       Mn751   2.209       .  S
N727        C731   1.352       .  A
N728        N729   1.321       .  A
N729        C730   1.351       .  A
N732        N738   1.316       .  A
N732        N733   1.321       .  A
N732      Mn1584   2.207   1_455  S
N733        C741   1.352       .  A
N734        N735   1.320       .  A
N734        N736   1.316       .  A
N735        C742   1.351       .  A
N736        N737   1.322       .  A
N736      Mn1447   2.207   1_455  S
N737        C742   1.352       .  A
N738        N739   1.321       .  A
N738       Mn740   2.202   1_556  S
N739        C741   1.351       .  A
N743        N744   1.323       .  A
N743        N749   1.316       .  A
N743       Mn751   2.212       .  S
N744        C752   1.354       .  A
N745        N747   1.316       .  A
N745        N746   1.320       .  A
N745      Mn1585   2.199   1_455  S
N746        C753   1.350       .  A
N747        N748   1.323       .  A
N748        C753   1.353       .  A
N749        N750   1.319       .  A
N749      Mn1311   2.194   1_455  S
N750        C752   1.349       .  A
Mn751      Cl764   2.548       .  S
N754        N755   1.321       .  A
N755        C765   1.352   1_565  A
N756        N757   1.320       .  A
N757        C766   1.351       .  A
N758        N759   1.321       .  A
N758       Mn762   2.206       .  S
N760        N761   1.319       .  A
N760       Mn763   2.193       .  S
Mn762      N1554   2.204       .  S
Mn762      N1284   2.205   1_556  S
Mn762     Cl1175   2.550   1_565  S
Mn763      N1567   2.203       .  S
Mn763      N1434   2.197       .  S
Mn763     Cl1449   2.549       .  S
Cl764     Mn1173   2.549   1_455  S
Cl764     Mn1311   2.550   1_455  S
C767        C768   1.402       .  A
C767        C772   1.403       .  A
C767       H1599   1.086   1_455  S
C768        C769   1.407       .  A
C768        C773   1.479       .  S
C769        C770   1.398       .  A
C769        N774   1.428       .  S
C770        C771   1.404       .  A
C770        H775   1.086       .  S
C771        C772   1.414       .  A
C772       N1598   1.429   1_455  S
C773        C778   1.407       .  A
C773        C782   1.401       .  A
N774        O789   1.262       .  A
N774        O790   1.262       .  A
N776       C1594   1.429       .  S
N776        O787   1.262       .  A
N776        O788   1.262       .  A
H777       C1589   1.086       .  S
C778        C779   1.400       .  A
C778        N783   1.428   1_455  S
C779        C780   1.405       .  A
C779        H784   1.085   1_455  S
C780        C781   1.412       .  A
C781        C782   1.401       .  A
C781        N785   1.429       .  S
C782        H786   1.086       .  S
N783       O1615   1.262       .  A
N783        O794   1.262       .  A
N785        O791   1.262       .  A
N785        O792   1.262       .  A
O793       N1605   1.262       .  A
C795        C796   1.402       .  A
C795        C800   1.401       .  A
C795        H805   1.085       .  S
C797        C798   1.399       .  A
C797        N802   1.429       .  S
C798        H803   1.085       .  S
C799        C800   1.412       .  A
C800        N804   1.429       .  S
C801        C810   1.402       .  A
N802        O817   1.262       .  A
N802        O818   1.262       .  A
N804        O815   1.262       .  A
N804        O816   1.262       .  A
C806        C807   1.398       .  A
C806        N811   1.428       .  S
C807        C808   1.403   1_565  A
C807        H812   1.087       .  S
C809        C810   1.401       .  A
C809        N813   1.429       .  S
C810        H814   1.086       .  S
N811        O821   1.262       .  A
N811        O822   1.262       .  A
N813        O819   1.262       .  A
N813        O820   1.262       .  A
C823        C824   1.406       .  A
C823        C828   1.404       .  A
C823        C936   1.482       .  S
C824       C1236   1.401       .  A
C824        H829   1.084       .  S
C825       C1235   1.401       .  A
C825        C826   1.400       .  A
C825        C868   1.466   1_565  S
C826        C827   1.400       .  A
C826        H830   1.084   1_565  S
C827       C1239   1.401       .  A
C827       C1278   1.465       .  S
C828       C1238   1.401       .  A
C828        H831   1.083       .  S
C832        C833   1.404       .  A
C832        C837   1.407       .  A
C832        C945   1.481       .  S
C833        C834   1.401       .  A
C833        H838   1.084       .  S
C834        C835   1.400       .  A
C834        C902   1.462       .  S
C835        C836   1.400       .  A
C835        H839   1.084       .  S
C836        C837   1.401       .  A
C836       C1314   1.466       .  S
C837        H840   1.084       .  S
C841        C842   1.408       .  A
C841        C846   1.406       .  A
C841        C908   1.486       .  S
C842        C843   1.401       .  A
C842        H847   1.084       .  S
C843        C844   1.400       .  A
C843        C890   1.467       .  S
C844        C845   1.401       .  A
C844        H848   1.084       .  S
C845        C846   1.402       .  A
C845        C889   1.465       .  S
C846        H849   1.083       .  S
C850        C851   1.407       .  A
C850        C855   1.407       .  A
C850        C917   1.486       .  S
C851        C852   1.403       .  A
C851        H856   1.083       .  S
C852        C853   1.401       .  A
C852        C878   1.467       .  S
C853        C854   1.400       .  A
C853        H857   1.084       .  S
C854        C855   1.400       .  A
C854        C879   1.466       .  S
C855        H858   1.084       .  S
N859        N860   1.321       .  A
N859       N1276   1.316   1_545  A
N859      Mn1162   2.205   1_554  S
N860       C1278   1.352   1_545  A
N861       N1274   1.316       .  A
N861        N862   1.319       .  A
N861       Mn877   2.197       .  S
N862       C1279   1.350       .  A
N863       N1272   1.316   1_545  A
N863        N864   1.322       .  A
N863       Mn888   2.208       .  S
N864        C868   1.352       .  A
N865       N1270   1.316       .  A
N865        N866   1.320       .  A
N865      Mn1151   2.199   1_554  S
N866        C867   1.350       .  A
C867       C1238   1.465       .  S
C867       N1271   1.352       .  A
C868       N1273   1.351   1_545  A
N869        N875   1.316       .  A
N869        N870   1.320       .  A
N870        C878   1.351       .  A
N871        N872   1.321       .  A
N871        N873   1.316       .  A
N871      Mn1151   2.202   1_554  S
N872        C879   1.351       .  A
N873        N874   1.321       .  A
N874        C879   1.352       .  A
N875        N876   1.322       .  A
N875       Mn877   2.208       .  S
N876        C878   1.352       .  A
Mn877      N1002   2.199       .  S
Mn877      N1008   2.202       .  S
Mn877     Cl1312   2.549       .  S
N880        N881   1.322       .  A
N880        N886   1.316       .  A
N880       Mn888   2.210       .  S
N881        C889   1.353       .  A
N882        N884   1.316       .  A
N882        N883   1.320       .  A
N883        C890   1.351       .  A
N884        N885   1.322       .  A
N884      Mn1162   2.210   1_554  S
N885        C890   1.353       .  A
N886        N887   1.319       .  A
N887        C889   1.349       .  A
Mn888       N996   2.205       .  S
Mn888      N1021   2.210       .  S
Mn888      Cl901   2.549       .  S
N891        N892   1.321       .  A
N891       N1308   1.316       .  A
N891      Mn1173   2.205   1_554  S
N892        C902   1.352       .  A
N893        N894   1.321       .  A
N893       N1306   1.316   1_545  A
N893      Mn1037   2.204       .  S
N894        C903   1.351       .  A
N895       N1304   1.316       .  A
N895        N896   1.321       .  A
N895       Mn899   2.206       .  S
N896       C1314   1.352       .  A
N897       N1302   1.316   1_545  A
N897        N898   1.320       .  A
N897       Mn900   2.197   1_554  S
N898       C1313   1.350       .  A
Mn899      N1028   2.205       .  S
Mn900      N1167   2.204       .  S
Cl901     Mn1288   2.548   1_545  S
C902       N1309   1.350       .  A
C903       C1247   1.466       .  S
C903       N1307   1.352   1_545  A
C904        C905   1.401       .  A
C904        C909   1.403       .  A
C905        C906   1.407       .  A
C905        C910   1.478       .  S
C906        C907   1.398       .  A
C906        N911   1.428       .  S
C907        C908   1.404       .  A
C907        H912   1.086       .  S
C908        C909   1.414       .  A
C910        C915   1.406       .  A
C910        C919   1.401       .  A
N911        O926   1.262       .  A
N911        O927   1.262       .  A
N913        O924   1.262       .  A
N913        O925   1.262       .  A
C915        C916   1.400       .  A
C915        N920   1.428       .  S
C916        C917   1.406       .  A
C916        H921   1.085       .  S
C917        C918   1.413       .  A
C918        C919   1.401       .  A
C918        N922   1.429       .  S
C919        H923   1.085       .  S
N920        O931   1.262       .  A
N922        O928   1.262       .  A
N922        O929   1.262       .  A
C932        C933   1.402       .  A
C932        C937   1.401       .  A
C932        H942   1.085       .  S
C933       C1345   1.409       .  A
C933       C1349   1.480       .  S
C934       C1344   1.409       .  A
C934        C935   1.399       .  A
C934        N939   1.429       .  S
C935       C1347   1.403   1_545  A
C935        H940   1.085       .  S
C936       C1346   1.403       .  A
C936        C937   1.412       .  A
C937        N941   1.429       .  S
C938       C1354   1.409   1_545  A
C938        C947   1.402       .  A
C938       C1344   1.480       .  S
N939        O954   1.262       .  A
N939        O955   1.262       .  A
N941        O952   1.262       .  A
N941        O953   1.262       .  A
C943       C1349   1.409       .  A
C943        C944   1.398       .  A
C943        N948   1.428       .  S
C944        C945   1.403       .  A
C944        H949   1.085       .  S
C945       C1357   1.412       .  A
C946       C1356   1.413       .  A
C946        C947   1.401       .  A
C946        N950   1.429       .  S
C947        H951   1.087       .  S
N948        O958   1.262       .  A
N948        O959   1.262       .  A
N950        O956   1.262       .  A
N950        O957   1.262       .  A
C960        C961   1.406       .  A
C960        C965   1.404       .  A
C960       C1073   1.482       .  S
C961       C1373   1.401       .  A
C961        H966   1.084       .  S
C962       C1372   1.401       .  A
C962        C963   1.400       .  A
C962       C1005   1.466   1_565  S
C963        C964   1.400       .  A
C963        H967   1.084   1_565  S
C964       C1376   1.401       .  A
C964       C1415   1.465       .  S
C965       C1375   1.401       .  A
C965        H968   1.083       .  S
C969        C970   1.404       .  A
C969        C974   1.407       .  A
C969       C1082   1.481       .  S
C970        C971   1.401       .  A
C970        H975   1.084       .  S
C971        C972   1.400       .  A
C971       C1039   1.462       .  S
C972        C973   1.400       .  A
C972        H976   1.084       .  S
C973        C974   1.401       .  A
C973       C1451   1.466       .  S
C974        H977   1.084       .  S
C978        C979   1.408       .  A
C978        C983   1.406       .  A
C978       C1045   1.486       .  S
C979        C980   1.401       .  A
C979        H984   1.084       .  S
C980        C981   1.400       .  A
C980       C1027   1.467       .  S
C981        C982   1.401       .  A
C981        H985   1.084       .  S
C982        C983   1.402       .  A
C982       C1026   1.465       .  S
C983        H986   1.083       .  S
C987        C988   1.407       .  A
C987        C992   1.407       .  A
C987       C1054   1.486       .  S
C988        C989   1.403       .  A
C988        H993   1.083       .  S
C989        C990   1.401       .  A
C989       C1015   1.467       .  S
C990        C991   1.400       .  A
C990        H994   1.084       .  S
C991        C992   1.400       .  A
C991       C1016   1.466       .  S
C992        H995   1.084       .  S
N996        N997   1.321       .  A
N996       N1413   1.316   1_545  A
N997       C1415   1.352   1_545  A
N998       N1411   1.316       .  A
N998        N999   1.319       .  A
N998      Mn1014   2.197       .  S
N999       C1416   1.350       .  A
N1000      N1409   1.316   1_545  A
N1000      N1001   1.322       .  A
N1000     Mn1025   2.208       .  S
N1001      C1005   1.352       .  A
N1002      N1407   1.316       .  A
N1002      N1003   1.320       .  A
N1003      C1004   1.350       .  A
C1004      C1375   1.465       .  S
C1004      N1408   1.352       .  A
C1005      N1410   1.351   1_545  A
N1006      N1012   1.316       .  A
N1006      N1007   1.320       .  A
N1007      C1015   1.351       .  A
N1008      N1009   1.321       .  A
N1008      N1010   1.316       .  A
N1009      C1016   1.351       .  A
N1010      N1011   1.321       .  A
N1011      C1016   1.352       .  A
N1012      N1013   1.322       .  A
N1012     Mn1014   2.208       .  S
N1013      C1015   1.352       .  A
Mn1014     N1139   2.199       .  S
Mn1014     N1145   2.202       .  S
Mn1014    Cl1449   2.549       .  S
N1017      N1018   1.322       .  A
N1017      N1023   1.316       .  A
N1017     Mn1025   2.210       .  S
N1018      C1026   1.353       .  A
N1019      N1021   1.316       .  A
N1019      N1020   1.320       .  A
N1020      C1027   1.351       .  A
N1021      N1022   1.322       .  A
N1022      C1027   1.353       .  A
N1023      N1024   1.319       .  A
N1024      C1026   1.349       .  A
Mn1025     N1133   2.205       .  S
Mn1025     N1158   2.210       .  S
Mn1025    Cl1038   2.549       .  S
N1028      N1029   1.321       .  A
N1028      N1445   1.316       .  A
N1029      C1039   1.352       .  A
N1030      N1031   1.321       .  A
N1030      N1443   1.316   1_545  A
N1030     Mn1174   2.204       .  S
N1031      C1040   1.351       .  A
N1032      N1441   1.316       .  A
N1032      N1033   1.321       .  A
N1032     Mn1036   2.206       .  S
N1033      C1451   1.352       .  A
N1034      N1439   1.316   1_545  A
N1034      N1035   1.320       .  A
N1034     Mn1037   2.197       .  S
N1035      C1450   1.350       .  A
Mn1036     N1165   2.205       .  S
Cl1038    Mn1425   2.548   1_545  S
C1039      N1446   1.350       .  A
C1040      C1384   1.466       .  S
C1040      N1444   1.352   1_545  A
C1041      C1042   1.401       .  A
C1041      C1046   1.403       .  A
C1042      C1043   1.407       .  A
C1042      C1047   1.478       .  S
C1043      C1044   1.398       .  A
C1043      N1048   1.428       .  S
C1044      C1045   1.404       .  A
C1044      H1049   1.086       .  S
C1045      C1046   1.414       .  A
C1047      C1052   1.406       .  A
C1047      C1056   1.401       .  A
N1048      O1063   1.262       .  A
N1048      O1064   1.262       .  A
N1050      O1061   1.262       .  A
N1050      O1062   1.262       .  A
C1052      C1053   1.400       .  A
C1052      N1057   1.428       .  S
C1053      C1054   1.406       .  A
C1053      H1058   1.085       .  S
C1054      C1055   1.413       .  A
C1055      C1056   1.401       .  A
C1055      N1059   1.429       .  S
C1056      H1060   1.085       .  S
N1057      O1068   1.262       .  A
N1059      O1065   1.262       .  A
N1059      O1066   1.262       .  A
C1069      C1070   1.402       .  A
C1069      C1074   1.401       .  A
C1069      H1079   1.085       .  S
C1070      C1482   1.409       .  A
C1070      C1486   1.480       .  S
C1071      C1481   1.409       .  A
C1071      C1072   1.399       .  A
C1071      N1076   1.429       .  S
C1072      C1484   1.403   1_545  A
C1072      H1077   1.085       .  S
C1073      C1483   1.403       .  A
C1073      C1074   1.412       .  A
C1074      N1078   1.429       .  S
C1075      C1491   1.409   1_545  A
C1075      C1084   1.402       .  A
C1075      C1481   1.480       .  S
N1076      O1091   1.262       .  A
N1076      O1092   1.262       .  A
N1078      O1089   1.262       .  A
N1078      O1090   1.262       .  A
C1080      C1486   1.409       .  A
C1080      C1081   1.398       .  A
C1080      N1085   1.428       .  S
C1081      C1082   1.403       .  A
C1081      H1086   1.085       .  S
C1082      C1494   1.412       .  A
C1083      C1493   1.413       .  A
C1083      C1084   1.401       .  A
C1083      N1087   1.429       .  S
C1084      H1088   1.087       .  S
N1085      O1095   1.262       .  A
N1085      O1096   1.262       .  A
N1087      O1093   1.262       .  A
N1087      O1094   1.262       .  A
C1097      C1098   1.406       .  A
C1097      C1102   1.404       .  A
C1097      C1210   1.482       .  S
C1098      C1510   1.401       .  A
C1098      H1103   1.084       .  S
C1099      C1509   1.401       .  A
C1099      C1100   1.400       .  A
C1099      C1142   1.466   1_565  S
C1100      C1101   1.400       .  A
C1100      H1104   1.084   1_565  S
C1101      C1513   1.401       .  A
C1101      C1552   1.465       .  S
C1102      C1512   1.401       .  A
C1102      H1105   1.083       .  S
C1106      C1107   1.404       .  A
C1106      C1111   1.407       .  A
C1106      C1219   1.481       .  S
C1107      C1108   1.401       .  A
C1107      H1112   1.084       .  S
C1108      C1109   1.400       .  A
C1108      C1176   1.462       .  S
C1109      C1110   1.400       .  A
C1109      H1113   1.084       .  S
C1110      C1111   1.401       .  A
C1110      C1588   1.466       .  S
C1111      H1114   1.084       .  S
C1115      C1116   1.408       .  A
C1115      C1120   1.406       .  A
C1115      C1182   1.486       .  S
C1116      C1117   1.401       .  A
C1116      H1121   1.084       .  S
C1117      C1118   1.400       .  A
C1117      C1164   1.467       .  S
C1118      C1119   1.401       .  A
C1118      H1122   1.084       .  S
C1119      C1120   1.402       .  A
C1119      C1163   1.465       .  S
C1120      H1123   1.083       .  S
C1124      C1125   1.407       .  A
C1124      C1129   1.407       .  A
C1124      C1191   1.486       .  S
C1125      C1126   1.403       .  A
C1125      H1130   1.083       .  S
C1126      C1127   1.401       .  A
C1126      C1152   1.467       .  S
C1127      C1128   1.400       .  A
C1127      H1131   1.084       .  S
C1128      C1129   1.400       .  A
C1128      C1153   1.466       .  S
C1129      H1132   1.084       .  S
N1133      N1134   1.321       .  A
N1133      N1550   1.316   1_545  A
N1134      C1552   1.352   1_545  A
N1135      N1548   1.316       .  A
N1135      N1136   1.319       .  A
N1135     Mn1151   2.197       .  S
N1136      C1553   1.350       .  A
N1137      N1546   1.316   1_545  A
N1137      N1138   1.322       .  A
N1137     Mn1162   2.208       .  S
N1138      C1142   1.352       .  A
N1139      N1544   1.316       .  A
N1139      N1140   1.320       .  A
N1140      C1141   1.350       .  A
C1141      C1512   1.465       .  S
C1141      N1545   1.352       .  A
C1142      N1547   1.351   1_545  A
N1143      N1149   1.316       .  A
N1143      N1144   1.320       .  A
N1144      C1152   1.351       .  A
N1145      N1146   1.321       .  A
N1145      N1147   1.316       .  A
N1146      C1153   1.351       .  A
N1147      N1148   1.321       .  A
N1148      C1153   1.352       .  A
N1149      N1150   1.322       .  A
N1149     Mn1151   2.208       .  S
N1150      C1152   1.352       .  A
Mn1151    Cl1586   2.549       .  S
N1154      N1155   1.322       .  A
N1154      N1160   1.316       .  A
N1154     Mn1162   2.210       .  S
N1155      C1163   1.353       .  A
N1156      N1158   1.316       .  A
N1156      N1157   1.320       .  A
N1157      C1164   1.351       .  A
N1158      N1159   1.322       .  A
N1159      C1164   1.353       .  A
N1160      N1161   1.319       .  A
N1161      C1163   1.349       .  A
Mn1162    Cl1175   2.549       .  S
N1165      N1166   1.321       .  A
N1165      N1582   1.316       .  A
N1166      C1176   1.352       .  A
N1167      N1168   1.321       .  A
N1167      N1580   1.316   1_545  A
N1168      C1177   1.351       .  A
N1169      N1578   1.316       .  A
N1169      N1170   1.321       .  A
N1169     Mn1173   2.206       .  S
N1170      C1588   1.352       .  A
N1171      N1576   1.316   1_545  A
N1171      N1172   1.320       .  A
N1171     Mn1174   2.197       .  S
N1172      C1587   1.350       .  A
Cl1175    Mn1562   2.548   1_545  S
C1176      N1583   1.350       .  A
C1177      C1521   1.466       .  S
C1177      N1581   1.352   1_545  A
C1178      C1179   1.401       .  A
C1178      C1183   1.403       .  A
C1179      C1180   1.407       .  A
C1179      C1184   1.478       .  S
C1180      C1181   1.398       .  A
C1180      N1185   1.428       .  S
C1181      C1182   1.404       .  A
C1181      H1186   1.086       .  S
C1182      C1183   1.414       .  A
C1184      C1189   1.406       .  A
C1184      C1193   1.401       .  A
N1185      O1200   1.262       .  A
N1185      O1201   1.262       .  A
N1187      O1198   1.262       .  A
N1187      O1199   1.262       .  A
C1189      C1190   1.400       .  A
C1189      N1194   1.428       .  S
C1190      C1191   1.406       .  A
C1190      H1195   1.085       .  S
C1191      C1192   1.413       .  A
C1192      C1193   1.401       .  A
C1192      N1196   1.429       .  S
C1193      H1197   1.085       .  S
N1194      O1205   1.262       .  A
N1196      O1202   1.262       .  A
N1196      O1203   1.262       .  A
C1206      C1207   1.402       .  A
C1206      C1211   1.401       .  A
C1206      H1216   1.085       .  S
C1207      C1619   1.409       .  A
C1207      C1623   1.480       .  S
C1208      C1618   1.409       .  A
C1208      C1209   1.399       .  A
C1208      N1213   1.429       .  S
C1209      C1621   1.403   1_545  A
C1209      H1214   1.085       .  S
C1210      C1620   1.403       .  A
C1210      C1211   1.412       .  A
C1211      N1215   1.429       .  S
C1212      C1628   1.409   1_545  A
C1212      C1221   1.402       .  A
C1212      C1618   1.480       .  S
N1213      O1228   1.262       .  A
N1213      O1229   1.262       .  A
N1215      O1226   1.262       .  A
N1215      O1227   1.262       .  A
C1217      C1623   1.409       .  A
C1217      C1218   1.398       .  A
C1217      N1222   1.428       .  S
C1218      C1219   1.403       .  A
C1218      H1223   1.085       .  S
C1219      C1631   1.412       .  A
C1220      C1630   1.413       .  A
C1220      C1221   1.401       .  A
C1220      N1224   1.429       .  S
C1221      H1225   1.087       .  S
N1222      O1232   1.262       .  A
N1222      O1233   1.262       .  A
N1224      O1230   1.262       .  A
N1224      O1231   1.262       .  A
C1234      C1235   1.407       .  A
C1234      C1239   1.405       .  A
C1234      C1347   1.482       .  S
C1235      H1240   1.084       .  S
C1236      C1237   1.400       .  A
C1236      C1279   1.466       .  S
C1237      C1238   1.401       .  A
C1237      H1241   1.084       .  S
C1239      H1242   1.084       .  S
C1243      C1244   1.404       .  A
C1243      C1248   1.407       .  A
C1243      C1356   1.481       .  S
C1244      C1245   1.401       .  A
C1244      H1249   1.084       .  S
C1245      C1246   1.400       .  A
C1245      C1313   1.463       .  S
C1246      C1247   1.400       .  A
C1246      H1250   1.084       .  S
C1247      C1248   1.401       .  A
C1248      H1251   1.084       .  S
C1252      C1253   1.408       .  A
C1252      C1257   1.406       .  A
C1252      C1319   1.486       .  S
C1253      C1254   1.401       .  A
C1253      H1258   1.084       .  S
C1254      C1255   1.400       .  A
C1254      C1301   1.467       .  S
C1255      C1256   1.400       .  A
C1255      H1259   1.084       .  S
C1256      C1257   1.402       .  A
C1256      C1300   1.465       .  S
C1257      H1260   1.083       .  S
C1261      C1262   1.407       .  A
C1261      C1266   1.406       .  A
C1261      C1328   1.485       .  S
C1262      C1263   1.403       .  A
C1262      H1267   1.083       .  S
C1263      C1264   1.400       .  A
C1263      C1289   1.466       .  S
C1264      C1265   1.400       .  A
C1264      H1268   1.084       .  S
C1265      C1266   1.400       .  A
C1265      C1290   1.465       .  S
C1266      H1269   1.084       .  S
N1270      N1271   1.322       .  A
N1270     Mn1573   2.208   1_554  S
N1272      N1273   1.320       .  A
N1272     Mn1288   2.201       .  S
N1274      N1275   1.322       .  A
N1274     Mn1299   2.211       .  S
N1275      C1279   1.353       .  A
N1276      N1277   1.321       .  A
N1276     Mn1562   2.202   1_554  S
N1277      C1278   1.351       .  A
N1280      N1286   1.316       .  A
N1280      N1281   1.321       .  A
N1281      C1289   1.351       .  A
N1282      N1283   1.320       .  A
N1282      N1284   1.316       .  A
N1282     Mn1562   2.200   1_554  S
N1283      C1290   1.351       .  A
N1284      N1285   1.321       .  A
N1285      C1290   1.352       .  A
N1286      N1287   1.321       .  A
N1286     Mn1288   2.205       .  S
N1287      C1289   1.352       .  A
Mn1288     N1413   2.202       .  S
Mn1288     N1419   2.200       .  S
N1291      N1292   1.322       .  A
N1291      N1297   1.316       .  A
N1291     Mn1299   2.208       .  S
N1292      C1300   1.353       .  A
N1293      N1295   1.316       .  A
N1293      N1294   1.321       .  A
N1294      C1301   1.351       .  A
N1295      N1296   1.321       .  A
N1295     Mn1573   2.208   1_554  S
N1296      C1301   1.352       .  A
N1297      N1298   1.320       .  A
N1298      C1300   1.350       .  A
Mn1299     N1407   2.208       .  S
Mn1299     N1432   2.208       .  S
Mn1299    Cl1312   2.549       .  S
N1302      N1303   1.321       .  A
N1302     Mn1584   2.203   1_554  S
N1303      C1313   1.352   1_565  A
N1304      N1305   1.321       .  A
N1304     Mn1448   2.203       .  S
N1305      C1314   1.351       .  A
N1306      N1307   1.321       .  A
N1306     Mn1310   2.205       .  S
N1308      N1309   1.319       .  A
N1308     Mn1311   2.195   1_554  S
Mn1310     N1439   2.203       .  S
Mn1311     N1578   2.203       .  S
C1315      C1316   1.401       .  A
C1315      C1320   1.403       .  A
C1316      C1317   1.407       .  A
C1316      C1321   1.478       .  S
C1317      C1318   1.399       .  A
C1317      N1322   1.428       .  S
C1318      C1319   1.404       .  A
C1318      H1323   1.086       .  S
C1319      C1320   1.415       .  A
C1321      C1326   1.407       .  A
C1321      C1330   1.401       .  A
N1322      O1337   1.262       .  A
N1322      O1338   1.262       .  A
N1324      O1335   1.262       .  A
N1324      O1336   1.262       .  A
C1326      C1327   1.400       .  A
C1326      N1331   1.428       .  S
C1327      C1328   1.405       .  A
C1327      H1332   1.085       .  S
C1328      C1329   1.413       .  A
C1329      C1330   1.401       .  A
C1329      N1333   1.429       .  S
C1330      H1334   1.085       .  S
N1331      O1342   1.262       .  A
N1333      O1339   1.262       .  A
N1333      O1340   1.262       .  A
C1343      C1344   1.402   1_565  A
C1343      C1348   1.401       .  A
C1343      H1353   1.085       .  S
C1345      C1346   1.399       .  A
C1345      N1350   1.429       .  S
C1346      H1351   1.085       .  S
C1347      C1348   1.412       .  A
C1348      N1352   1.429       .  S
C1349      C1358   1.402       .  A
N1350      O1365   1.262       .  A
N1350      O1366   1.262       .  A
N1352      O1363   1.262       .  A
N1352      O1364   1.262       .  A
C1354      C1355   1.398       .  A
C1354      N1359   1.428       .  S
C1355      C1356   1.403   1_565  A
C1355      H1360   1.087       .  S
C1357      C1358   1.401       .  A
C1357      N1361   1.429       .  S
C1358      H1362   1.086       .  S
N1359      O1369   1.262       .  A
N1359      O1370   1.262       .  A
N1361      O1367   1.262       .  A
N1361      O1368   1.262       .  A
C1371      C1372   1.407       .  A
C1371      C1376   1.405       .  A
C1371      C1484   1.482       .  S
C1372      H1377   1.084       .  S
C1373      C1374   1.400       .  A
C1373      C1416   1.466       .  S
C1374      C1375   1.401       .  A
C1374      H1378   1.084       .  S
C1376      H1379   1.084       .  S
C1380      C1381   1.404       .  A
C1380      C1385   1.407       .  A
C1380      C1493   1.481       .  S
C1381      C1382   1.401       .  A
C1381      H1386   1.084       .  S
C1382      C1383   1.400       .  A
C1382      C1450   1.463       .  S
C1383      C1384   1.400       .  A
C1383      H1387   1.084       .  S
C1384      C1385   1.401       .  A
C1385      H1388   1.084       .  S
C1389      C1390   1.408       .  A
C1389      C1394   1.406       .  A
C1389      C1456   1.486       .  S
C1390      C1391   1.401       .  A
C1390      H1395   1.084       .  S
C1391      C1392   1.400       .  A
C1391      C1438   1.467       .  S
C1392      C1393   1.400       .  A
C1392      H1396   1.084       .  S
C1393      C1394   1.402       .  A
C1393      C1437   1.465       .  S
C1394      H1397   1.083       .  S
C1398      C1399   1.407       .  A
C1398      C1403   1.406       .  A
C1398      C1465   1.485       .  S
C1399      C1400   1.403       .  A
C1399      H1404   1.083       .  S
C1400      C1401   1.400       .  A
C1400      C1426   1.466       .  S
C1401      C1402   1.400       .  A
C1401      H1405   1.084       .  S
C1402      C1403   1.400       .  A
C1402      C1427   1.465       .  S
C1403      H1406   1.084       .  S
N1407      N1408   1.322       .  A
N1409      N1410   1.320       .  A
N1409     Mn1425   2.201       .  S
N1411      N1412   1.322       .  A
N1411     Mn1436   2.211       .  S
N1412      C1416   1.353       .  A
N1413      N1414   1.321       .  A
N1414      C1415   1.351       .  A
N1417      N1423   1.316       .  A
N1417      N1418   1.321       .  A
N1418      C1426   1.351       .  A
N1419      N1420   1.320       .  A
N1419      N1421   1.316       .  A
N1420      C1427   1.351       .  A
N1421      N1422   1.321       .  A
N1422      C1427   1.352       .  A
N1423      N1424   1.321       .  A
N1423     Mn1425   2.205       .  S
N1424      C1426   1.352       .  A
Mn1425     N1550   2.202       .  S
Mn1425     N1556   2.200       .  S
N1428      N1429   1.322       .  A
N1428      N1434   1.316       .  A
N1428     Mn1436   2.208       .  S
N1429      C1437   1.353       .  A
N1430      N1432   1.316       .  A
N1430      N1431   1.321       .  A
N1431      C1438   1.351       .  A
N1432      N1433   1.321       .  A
N1433      C1438   1.352       .  A
N1434      N1435   1.320       .  A
N1435      C1437   1.350       .  A
Mn1436     N1544   2.208       .  S
Mn1436     N1569   2.208       .  S
Mn1436    Cl1449   2.549       .  S
N1439      N1440   1.321       .  A
N1440      C1450   1.352   1_565  A
N1441      N1442   1.321       .  A
N1441     Mn1585   2.203       .  S
N1442      C1451   1.351       .  A
N1443      N1444   1.321       .  A
N1443     Mn1447   2.205       .  S
N1445      N1446   1.319       .  A
N1445     Mn1448   2.195       .  S
Mn1447     N1576   2.203       .  S
C1452      C1453   1.401       .  A
C1452      C1457   1.403       .  A
C1453      C1454   1.407       .  A
C1453      C1458   1.478       .  S
C1454      C1455   1.399       .  A
C1454      N1459   1.428       .  S
C1455      C1456   1.404       .  A
C1455      H1460   1.086       .  S
C1456      C1457   1.415       .  A
C1458      C1463   1.407       .  A
C1458      C1467   1.401       .  A
N1459      O1474   1.262       .  A
N1459      O1475   1.262       .  A
N1461      O1472   1.262       .  A
N1461      O1473   1.262       .  A
C1463      C1464   1.400       .  A
C1463      N1468   1.428       .  S
C1464      C1465   1.405       .  A
C1464      H1469   1.085       .  S
C1465      C1466   1.413       .  A
C1466      C1467   1.401       .  A
C1466      N1470   1.429       .  S
C1467      H1471   1.085       .  S
N1468      O1479   1.262       .  A
N1470      O1476   1.262       .  A
N1470      O1477   1.262       .  A
C1480      C1481   1.402   1_565  A
C1480      C1485   1.401       .  A
C1480      H1490   1.085       .  S
C1482      C1483   1.399       .  A
C1482      N1487   1.429       .  S
C1483      H1488   1.085       .  S
C1484      C1485   1.412       .  A
C1485      N1489   1.429       .  S
C1486      C1495   1.402       .  A
N1487      O1502   1.262       .  A
N1487      O1503   1.262       .  A
N1489      O1500   1.262       .  A
N1489      O1501   1.262       .  A
C1491      C1492   1.398       .  A
C1491      N1496   1.428       .  S
C1492      C1493   1.403   1_565  A
C1492      H1497   1.087       .  S
C1494      C1495   1.401       .  A
C1494      N1498   1.429       .  S
C1495      H1499   1.086       .  S
N1496      O1506   1.262       .  A
N1496      O1507   1.262       .  A
N1498      O1504   1.262       .  A
N1498      O1505   1.262       .  A
C1508      C1509   1.407       .  A
C1508      C1513   1.405       .  A
C1508      C1621   1.482       .  S
C1509      H1514   1.084       .  S
C1510      C1511   1.400       .  A
C1510      C1553   1.466       .  S
C1511      C1512   1.401       .  A
C1511      H1515   1.084       .  S
C1513      H1516   1.084       .  S
C1517      C1518   1.404       .  A
C1517      C1522   1.407       .  A
C1517      C1630   1.481       .  S
C1518      C1519   1.401       .  A
C1518      H1523   1.084       .  S
C1519      C1520   1.400       .  A
C1519      C1587   1.463       .  S
C1520      C1521   1.400       .  A
C1520      H1524   1.084       .  S
C1521      C1522   1.401       .  A
C1522      H1525   1.084       .  S
C1526      C1527   1.408       .  A
C1526      C1531   1.406       .  A
C1526      C1593   1.486       .  S
C1527      C1528   1.401       .  A
C1527      H1532   1.084       .  S
C1528      C1529   1.400       .  A
C1528      C1575   1.467       .  S
C1529      C1530   1.400       .  A
C1529      H1533   1.084       .  S
C1530      C1531   1.402       .  A
C1530      C1574   1.465       .  S
C1531      H1534   1.083       .  S
C1535      C1536   1.407       .  A
C1535      C1540   1.406       .  A
C1535      C1602   1.485       .  S
C1536      C1537   1.403       .  A
C1536      H1541   1.083       .  S
C1537      C1538   1.400       .  A
C1537      C1563   1.466       .  S
C1538      C1539   1.400       .  A
C1538      H1542   1.084       .  S
C1539      C1540   1.400       .  A
C1539      C1564   1.465       .  S
C1540      H1543   1.084       .  S
N1544      N1545   1.322       .  A
N1546      N1547   1.320       .  A
N1546     Mn1562   2.201       .  S
N1548      N1549   1.322       .  A
N1548     Mn1573   2.211       .  S
N1549      C1553   1.353       .  A
N1550      N1551   1.321       .  A
N1551      C1552   1.351       .  A
N1554      N1560   1.316       .  A
N1554      N1555   1.321       .  A
N1555      C1563   1.351       .  A
N1556      N1557   1.320       .  A
N1556      N1558   1.316       .  A
N1557      C1564   1.351       .  A
N1558      N1559   1.321       .  A
N1559      C1564   1.352       .  A
N1560      N1561   1.321       .  A
N1560     Mn1562   2.205       .  S
N1561      C1563   1.352       .  A
N1565      N1566   1.322       .  A
N1565      N1571   1.316       .  A
N1565     Mn1573   2.208       .  S
N1566      C1574   1.353       .  A
N1567      N1569   1.316       .  A
N1567      N1568   1.321       .  A
N1568      C1575   1.351       .  A
N1569      N1570   1.321       .  A
N1570      C1575   1.352       .  A
N1571      N1572   1.320       .  A
N1572      C1574   1.350       .  A
Mn1573    Cl1586   2.549       .  S
N1576      N1577   1.321       .  A
N1577      C1587   1.352   1_565  A
N1578      N1579   1.321       .  A
N1579      C1588   1.351       .  A
N1580      N1581   1.321       .  A
N1580     Mn1584   2.205       .  S
N1582      N1583   1.319       .  A
N1582     Mn1585   2.195       .  S
C1589      C1590   1.401       .  A
C1589      C1594   1.403       .  A
C1590      C1591   1.407       .  A
C1590      C1595   1.478       .  S
C1591      C1592   1.399       .  A
C1591      N1596   1.428       .  S
C1592      C1593   1.404       .  A
C1592      H1597   1.086       .  S
C1593      C1594   1.415       .  A
C1595      C1600   1.407       .  A
C1595      C1604   1.401       .  A
N1596      O1611   1.262       .  A
N1596      O1612   1.262       .  A
N1598      O1609   1.262       .  A
N1598      O1610   1.262       .  A
C1600      C1601   1.400       .  A
C1600      N1605   1.428       .  S
C1601      C1602   1.405       .  A
C1601      H1606   1.085       .  S
C1602      C1603   1.413       .  A
C1603      C1604   1.401       .  A
C1603      N1607   1.429       .  S
C1604      H1608   1.085       .  S
N1605      O1616   1.262       .  A
N1607      O1613   1.262       .  A
N1607      O1614   1.262       .  A
C1617      C1618   1.402   1_565  A
C1617      C1622   1.401       .  A
C1617      H1627   1.085       .  S
C1619      C1620   1.399       .  A
C1619      N1624   1.429       .  S
C1620      H1625   1.085       .  S
C1621      C1622   1.412       .  A
C1622      N1626   1.429       .  S
C1623      C1632   1.402       .  A
N1624      O1639   1.262       .  A
N1624      O1640   1.262       .  A
N1626      O1637   1.262       .  A
N1626      O1638   1.262       .  A
C1628      C1629   1.398       .  A
C1628      N1633   1.428       .  S
C1629      C1630   1.403   1_565  A
C1629      H1634   1.087       .  S
C1631      C1632   1.401       .  A
C1631      N1635   1.429       .  S
C1632      H1636   1.086       .  S
N1633      O1643   1.262       .  A
N1633      O1644   1.262       .  A
N1635      O1641   1.262       .  A
N1635      O1642   1.262       .  A
