geometry optimzed in LAMMPS
_audit_creation_date              2020-11-30 
_audit_creation_method            'lammps2cif' 
_symmetry_space_group_name_H-M    'P1' 
_symmetry_Int_Tables_number       1 
_symmetry_cell_setting            triclinic 
loop_ 
_symmetry_equiv_pos_as_xyz 
  x,y,z 
_cell_length_a                    26.90490872 
_cell_length_b                    40.397531489967484 
_cell_length_c                    26.964055846691522 
_cell_angle_alpha                 89.9974516385786 
_cell_angle_beta                  90.00007133271527 
_cell_angle_gamma                 89.99715026850043 
loop_ 
_atom_site_label 
_atom_site_type_symbol 
_atom_site_fract_x 
_atom_site_fract_y 
_atom_site_fract_z 
_atom_site_charge 
O1          O  0.07442225  0.00000746  0.45879162    -0.73800
O2          O  0.42559896  0.00001517  0.45879013    -0.74800
O3          O  0.50001371  0.04968658  0.45877472    -0.63400
O4          O  0.99999947  0.45032319  0.45876381    -0.71800
O5          O  0.00001372  0.45030769  0.04122514    -0.71300
O6          O  0.50001701  0.04968183  0.04123653    -0.62600
O7          O  0.42560373  0.49999094  0.04120806    -0.75100
O8          O  0.07442705  0.49998070  0.04120984    -0.73900
Cu9        Cu  0.50001058  0.00000745  0.45587033     1.04600
Cu10       Cu  0.00001663  0.49998764  0.04412943     1.04300
C11         C  0.09782570  0.99999663  0.00000079     0.92400
C12         C  0.40219859  0.49999317  0.99999903     0.91600
C13         C  0.00002019  0.06521882  0.00000712     0.83700
C14         C  0.50001272  0.43477682  0.99999264     0.90000
O15         O  0.00000372  0.04968622  0.29124978    -0.73800
O16         O  0.00001128  0.45032166  0.29120707    -0.74800
O17         O  0.07441433  0.50001150  0.29119929    -0.63400
O18         O  0.42558555  0.00001720  0.29121998    -0.71800
O19         O  0.42558954  0.00002062  0.20880186    -0.71300
O20         O  0.07440869  0.00000813  0.20880211    -0.62600
O21         O  0.50001228  0.45032685  0.20874619    -0.75100
O22         O  0.50000281  0.04968974  0.20878746    -0.73900
Cu23       Cu  0.00000530  0.50000594  0.29411318     1.04600
Cu24       Cu  0.49999844  0.00001105  0.20588539     1.04300
C25         C  0.00000338  0.06522126  0.25001912     0.92400
C26         C  0.50000918  0.43478859  0.24997539     0.91600
C27         C  0.09781584  0.00000910  0.25000932     0.83700
C28         C  0.40218301  0.00002456  0.25000902     0.90000
O29         O  0.25002597  0.45030741  0.04122621    -0.73800
O30         O  0.24999784  0.04967089  0.04123523    -0.74800
O31         O  0.17559359  0.99998299  0.04120992    -0.63400
O32         O  0.32441674  0.99997644  0.04120780    -0.71800
O33         O  0.32442212  0.00004298  0.45878986    -0.71300
O34         O  0.17559859  0.00003746  0.45879162    -0.62600
O35         O  0.25000401  0.04971490  0.45877354    -0.75100
O36         O  0.24997886  0.45035272  0.45876471    -0.73900
Cu37       Cu  0.25000129  0.99997947  0.04412866     1.04600
Cu38       Cu  0.24999815  0.50004453  0.45587145     1.04300
C39         C  0.24997223  0.43481155  0.49999289     0.92400
C40         C  0.25000386  0.06524296  0.50000688     0.91600
C41         C  0.15219408  0.00002765  0.50000085     0.83700
C42         C  0.34782704  0.00003476  0.49999897     0.90000
O43         O  0.17558662  0.00002768  0.20879315    -0.73800
O44         O  0.32441424  0.00003937  0.20879232    -0.74800
O45         O  0.25000118  0.45034510  0.20876014    -0.63400
O46         O  0.24999000  0.04971028  0.20877597    -0.71800
O47         O  0.24998796  0.04970275  0.29123846    -0.71300
O48         O  0.25000416  0.45033591  0.29122104    -0.62600
O49         O  0.32440953  0.00002868  0.29121052    -0.75100
O50         O  0.17559048  0.00001600  0.29121119    -0.73900
Cu51       Cu  0.25000107  0.00003408  0.20586721     1.04600
Cu52       Cu  0.25000027  0.00002220  0.29412701     1.04300
C53         C  0.15218357  0.00001779  0.25000389     0.92400
C54         C  0.34781641  0.00003289  0.25000348     0.91600
C55         C  0.25000049  0.43480484  0.24998826     0.83700
C56         C  0.24998658  0.06523955  0.25000868     0.90000
O57         O  0.04131645  0.38315012  0.49998941    -0.73800
O58         O  0.04128923  0.28377846  0.49999576    -0.74800
O59         O  0.04128777  0.33346572  0.42558521    -0.63400
O60         O  0.04127607  0.33346501  0.07439817    -0.71800
O61         O  0.45870371  0.33347505  0.07439726    -0.71300
O62         O  0.45871563  0.33346792  0.42558671    -0.62600
O63         O  0.45870305  0.28378751  0.99999577    -0.75100
O64         O  0.45868359  0.38315563  0.99998979    -0.73900
Cu65       Cu  0.04419855  0.33346441  0.49999226     1.04600
Cu66       Cu  0.45579499  0.33347455  0.99999238     1.04300
C67         C  0.49999800  0.39868841  0.49998973     0.92400
C68         C  0.49998525  0.26815164  0.99999764     0.91600
C69         C  0.50000106  0.33346953  0.40217617     0.83700
C70         C  0.49998946  0.33346927  0.09780718     0.90000
O71         O  0.45871137  0.33347606  0.32439891    -0.73800
O72         O  0.45870298  0.33346810  0.17558613    -0.74800
O73         O  0.45870476  0.28378536  0.25000318    -0.62200
O74         O  0.45868327  0.38315929  0.24998072    -0.71800
O75         O  0.04131983  0.38315333  0.24997526    -0.71300
O76         O  0.04127010  0.28378313  0.25000175    -0.62600
O77         O  0.04127538  0.33346466  0.17558446    -0.75100
O78         O  0.04128346  0.33347509  0.32439505    -0.73900
Cu79       Cu  0.45579660  0.33347250  0.24999244     1.04600
Cu80       Cu  0.04418921  0.33346897  0.24998887     1.04300
C81         C  0.49999875  0.33347457  0.34780681     0.92400
C82         C  0.49998887  0.33346698  0.15217582     0.91600
C83         C  0.49998775  0.26815082  0.25000538     0.83700
C84         C  0.50000356  0.39869336  0.24997461     0.90000
O85         O  0.20872344  0.28378824  0.49999653    -0.73800
O86         O  0.20866281  0.38316702  0.49999009    -0.74800
O87         O  0.20870483  0.33347155  0.42558725    -0.63400
O88         O  0.20874292  0.33349237  0.07439692    -0.71800
O89         O  0.29131547  0.33348349  0.07440123    -0.71300
O90         O  0.29127690  0.33348817  0.42558730    -0.62600
O91         O  0.29135083  0.38315761  0.99999048    -0.75100
O92         O  0.29130499  0.28379631  0.99999658    -0.73900
Cu93       Cu  0.20579716  0.33347340  0.49999302     1.04600
Cu94       Cu  0.29422701  0.33348063  0.99999317     1.04300
C95         C  0.25001033  0.26815914  0.49999819     0.92400
C96         C  0.25003162  0.39869293  0.99999046     0.91600
C97         C  0.24999062  0.33348065  0.40217756     0.83700
C98         C  0.25002765  0.33348948  0.09780860     0.90000
O99         O  0.20872149  0.28380254  0.24998916    -0.73800
O100        O  0.20868051  0.38317409  0.24998111    -0.74800
O101        O  0.20873049  0.33349040  0.17558033    -0.63400
O102        O  0.20870757  0.33348687  0.32439440    -0.71800
O103        O  0.29127977  0.33348394  0.32440298    -0.71300
O104        O  0.29130276  0.33348843  0.17559362    -0.62600
O105        O  0.29131712  0.38317128  0.24999776    -0.75100
O106        O  0.29128684  0.28379908  0.25000190    -0.73900
Cu107      Cu  0.20580640  0.33348857  0.24998545     1.04600
Cu108      Cu  0.29419894  0.33348583  0.24999961     1.04300
C109        C  0.25000365  0.26816744  0.24999890     0.92400
C110        C  0.24999891  0.39870969  0.24998640     0.91600
C111        C  0.25002053  0.33349019  0.15217744     0.83700
C112        C  0.24999180  0.33348383  0.34780841     0.90000
O113        O  0.04128895  0.16652525  0.07441618    -0.73800
O114        O  0.04129421  0.16651868  0.42560183    -0.74800
O115        O  0.04129014  0.21620521  0.50000403    -0.63400
O116        O  0.04133638  0.11684603  0.00001029    -0.71800
O117        O  0.45869863  0.11684466  0.00001000    -0.71300
O118        O  0.45872452  0.21620805  0.50000408    -0.62600
O119        O  0.45872156  0.16652318  0.42560470    -0.75100
O120        O  0.45871672  0.16652315  0.07441375    -0.73900
Cu121      Cu  0.04420742  0.16652040  0.50000755     1.04600
Cu122      Cu  0.45580806  0.16652510  0.00000741     1.04300
C123        C  0.50000189  0.16652269  0.09782515     0.92400
C124        C  0.50000643  0.16652057  0.40219416     0.91600
C125        C  0.49998805  0.23184477  0.00000214     0.83700
C126        C  0.50001575  0.10130735  0.50001015     0.90000
O127        O  0.45870920  0.21620960  0.25000458    -0.73800
O128        O  0.45868023  0.11684509  0.25002101    -0.74800
O129        O  0.45871495  0.16652493  0.32441847    -0.63400
O130        O  0.45871148  0.16651863  0.17560399    -0.71800
O131        O  0.04128360  0.16652664  0.17560675    -0.71300
O132        O  0.04128769  0.16652126  0.32441581    -0.62600
O133        O  0.04131854  0.11684592  0.25001367    -0.75100
O134        O  0.04127471  0.21621063  0.25001477    -0.73900
Cu135      Cu  0.45580005  0.16652407  0.25001208     1.04600
Cu136      Cu  0.04419373  0.16652574  0.25001281     1.04300
C137        C  0.49999029  0.23184339  0.25000917     0.92400
C138        C  0.50000067  0.10131096  0.25001912     0.91600
C139        C  0.50000264  0.16652175  0.34782626     0.83700
C140        C  0.49999857  0.16652180  0.15219531     0.90000
O141        O  0.20869448  0.16655345  0.07441307    -0.73800
O142        O  0.20871957  0.16652970  0.42560197    -0.74800
O143        O  0.20868144  0.11686027  0.50000933    -0.63400
O144        O  0.20871433  0.21623833  0.00000370    -0.71800
O145        O  0.29127983  0.21622272  0.00000398    -0.71300
O146        O  0.29132082  0.11686027  0.50001018    -0.62600
O147        O  0.29129202  0.16653283  0.42560013    -0.75100
O148        O  0.29126661  0.16653771  0.07441271    -0.73900
Cu149      Cu  0.20580984  0.16653391  0.50000676     1.04600
Cu150      Cu  0.29417939  0.16653705  0.00000741     1.04300
C151        C  0.24998059  0.16654602  0.09782254     0.92400
C152        C  0.25000496  0.16652992  0.40219145     0.91600
C153        C  0.24998222  0.10131312  0.00000976     0.83700
C154        C  0.25001536  0.23185177  0.50000217     0.90000
O155        O  0.29130684  0.11686058  0.25000263    -0.73800
O156        O  0.29128230  0.21622395  0.25000266    -0.74800
O157        O  0.29128569  0.16653311  0.32440925    -0.63400
O158        O  0.29127069  0.16654087  0.17559778    -0.71800
O159        O  0.20869831  0.16654888  0.17560452    -0.71300
O160        O  0.20871329  0.16653669  0.32441649    -0.62600
O161        O  0.20871680  0.21622993  0.25001450    -0.75100
O162        O  0.20866856  0.11686549  0.25000931    -0.73900
Cu163      Cu  0.29418933  0.16653885  0.25000265     1.04600
Cu164      Cu  0.20579573  0.16654503  0.25001160     1.04300
C165        C  0.24998689  0.10132870  0.25000881     0.92400
C166        C  0.25000114  0.23186014  0.25000617     0.91600
C167        C  0.25000157  0.16653199  0.34782247     0.83700
C168        C  0.24998272  0.16654543  0.15219153     0.90000
O169        O  0.07442239  0.00000339  0.95879137    -0.73800
O170        O  0.42559895  0.00000659  0.95879029    -0.74800
O171        O  0.50001734  0.04968781  0.95877469    -0.63400
O172        O  0.00001442  0.45031373  0.95876319    -0.71800
O173        O  0.99999882  0.45031720  0.54122450    -0.71300
O174        O  0.50001347  0.04968060  0.54123693    -0.62600
O175        O  0.42558503  0.50000459  0.54120821    -0.75100
O176        O  0.07440839  0.50000961  0.54120971    -0.73900
Cu177      Cu  0.50001376  0.00000736  0.95587031     1.04600
Cu178      Cu  0.99999592  0.50000237  0.54412944     1.04300
C179        C  0.09782685  0.00001089  0.50000081     0.92400
C180        C  0.40218071  0.50001155  0.49999903     0.91600
C181        C  0.00001508  0.06521711  0.50000731     0.83700
C182        C  0.49999828  0.43478422  0.49999264     0.90000
O183        O  0.00000230  0.04968361  0.79122423    -0.73800
O184        O  0.00001169  0.45032072  0.79124180    -0.74800
O185        O  0.07442007  0.50001011  0.79122064    -0.63400
O186        O  0.42558912  0.00001427  0.79119628    -0.71800
O187        O  0.42558579  0.00002356  0.70877816    -0.71300
O188        O  0.07441334  0.00001037  0.70878155    -0.62600
O189        O  0.50001166  0.45032780  0.70878092    -0.75100
O190        O  0.50000437  0.04969232  0.70876190    -0.73900
Cu191      Cu  0.00000660  0.50000476  0.79414577     1.04600
Cu192      Cu  0.49999932  0.00001400  0.70585524     1.04300
C193        C  0.00000334  0.06522122  0.74999568     0.92400
C194        C  0.50000922  0.43478860  0.75000948     0.91600
C195        C  0.09781583  0.00000911  0.74999264     0.83700
C196        C  0.40218293  0.00002457  0.74998887     0.90000
O197        O  0.24997938  0.45034681  0.54122404    -0.73800
O198        O  0.25000493  0.04970899  0.54123727    -0.74800
O199        O  0.17559908  0.00003153  0.54120993    -0.63400
O200        O  0.32442261  0.00003662  0.54120820    -0.71800
O201        O  0.32441615  0.99998264  0.95879060    -0.71300
O202        O  0.17559319  0.99998911  0.95879162    -0.62600
O203        O  0.24999684  0.04967678  0.95877598    -0.75100
O204        O  0.25002528  0.45031315  0.95876282    -0.73900
Cu205      Cu  0.25001121  0.00003594  0.54413055     1.04600
Cu206      Cu  0.25001105  0.49998823  0.95586973     1.04300
C207        C  0.25002981  0.43477873  0.99999312     0.92400
C208        C  0.24998849  0.06521213  0.00000705     0.91600
C209        C  0.15218990  0.99998870  0.00000083     0.83700
C210        C  0.34782265  0.99998385  0.99999900     0.90000
O211        O  0.17558989  0.00002229  0.70879072    -0.73800
O212        O  0.32440887  0.00003453  0.70878770    -0.74800
O213        O  0.25000288  0.45034158  0.70876847    -0.63400
O214        O  0.24998734  0.04970859  0.70877242    -0.71800
O215        O  0.24999061  0.04970462  0.79123491    -0.71300
O216        O  0.25000220  0.45033922  0.79122937    -0.62600
O217        O  0.32441478  0.00003352  0.79120591    -0.75100
O218        O  0.17558704  0.00002157  0.79120876    -0.73900
Cu219      Cu  0.24999936  0.00002858  0.70587313     1.04600
Cu220      Cu  0.25000181  0.00002777  0.79413292     1.04300
C221        C  0.15218350  0.00001786  0.74999815     0.92400
C222        C  0.34781636  0.00003290  0.74999448     0.91600
C223        C  0.25000030  0.43480472  0.74999843     0.83700
C224        C  0.24998653  0.06523963  0.75000499     0.90000
O225        O  0.04132119  0.38314542  0.99998951    -0.73800
O226        O  0.04126871  0.28378189  0.99999580    -0.74800
O227        O  0.04127551  0.33346521  0.92558641    -0.63400
O228        O  0.04128831  0.33346571  0.57439934    -0.71800
O229        O  0.45871616  0.33346767  0.57439786    -0.71300
O230        O  0.45870316  0.33347531  0.92558738    -0.62600
O231        O  0.45872375  0.28378045  0.49999570    -0.75100
O232        O  0.45867998  0.38315221  0.49998972    -0.73900
Cu233      Cu  0.04418836  0.33346450  0.99999232     1.04600
Cu234      Cu  0.45580616  0.33346648  0.49999231     1.04300
C235        C  0.50000574  0.39868573  0.99998977     0.92400
C236        C  0.50000688  0.26814632  0.49999760     0.91600
C237        C  0.49998881  0.33346947  0.90217743     0.83700
C238        C  0.50000155  0.33346941  0.59780840     0.90000
O239        O  0.45870244  0.33346833  0.82439820    -0.73800
O240        O  0.45871190  0.33347586  0.67558548    -0.74800
O241        O  0.45870478  0.28378532  0.74998851    -0.62200
O242        O  0.45868330  0.38315932  0.74999788    -0.71800
O243        O  0.04131992  0.38315336  0.75000372    -0.71300
O244        O  0.04127012  0.28378315  0.74999028    -0.62600
O245        O  0.04128417  0.33347507  0.67558961    -0.75100
O246        O  0.04127467  0.33346488  0.82440029    -0.73900
Cu247      Cu  0.45579674  0.33347250  0.74999187     1.04600
Cu248      Cu  0.04418915  0.33346901  0.74999586     1.04300
C249        C  0.49998821  0.33346726  0.84780874     0.92400
C250        C  0.49999936  0.33347443  0.65217773     0.91600
C251        C  0.49998772  0.26815079  0.74999008     0.83700
C252        C  0.50000356  0.39869337  0.75000437     0.90000
O253        O  0.20873904  0.28380844  0.99999657    -0.73800
O254        O  0.20871159  0.38316264  0.99999024    -0.74800
O255        O  0.20874283  0.33349239  0.92558937    -0.63400
O256        O  0.20870505  0.33347179  0.57439883    -0.71800
O257        O  0.29127711  0.33348822  0.57439884    -0.71300
O258        O  0.29131537  0.33348336  0.92558511    -0.62600
O259        O  0.29129797  0.38317605  0.49999013    -0.75100
O260        O  0.29128859  0.28379720  0.49999650    -0.73900
Cu261      Cu  0.20583243  0.33348975  0.99999312     1.04600
Cu262      Cu  0.29418865  0.33348756  0.49999303     1.04300
C263        C  0.25001726  0.26816977  0.99999823     0.92400
C264        C  0.24997623  0.39871093  0.49999014     0.91600
C265        C  0.25002754  0.33348937  0.90217769     0.83700
C266        C  0.24999078  0.33348093  0.59780857     0.90000
O267        O  0.20872137  0.28380248  0.75000329    -0.73800
O268        O  0.20868041  0.38317391  0.74999975    -0.74800
O269        O  0.20870769  0.33348723  0.67559156    -0.63400
O270        O  0.20873034  0.33349008  0.82440569    -0.71800
O271        O  0.29130261  0.33348818  0.82439278    -0.71300
O272        O  0.29127988  0.33348437  0.67558343    -0.62600
O273        O  0.29131703  0.38317123  0.74998359    -0.75100
O274        O  0.29128672  0.28379910  0.74999101    -0.73900
Cu275      Cu  0.20580630  0.33348844  0.75000043     1.04600
Cu276      Cu  0.29419884  0.33348585  0.74998684     1.04300
C277        C  0.25000355  0.26816742  0.74999708     0.92400
C278        C  0.24999877  0.39870958  0.74999497     0.91600
C279        C  0.24999202  0.33348426  0.65217775     0.83700
C280        C  0.25002033  0.33348999  0.84780882     0.90000
O281        O  0.04129402  0.16651867  0.57441336    -0.73800
O282        O  0.04128900  0.16652528  0.92559887    -0.74800
O283        O  0.04127316  0.21621278  0.00000396    -0.63400
O284        O  0.04133488  0.11684068  0.50001038    -0.71800
O285        O  0.45869670  0.11684362  0.50001008    -0.71300
O286        O  0.45870782  0.21621050  0.00000401    -0.62600
O287        O  0.45871697  0.16652341  0.92560118    -0.75100
O288        O  0.45872136  0.16652293  0.57441025    -0.73900
Cu289      Cu  0.04420110  0.16652757  0.00000747     1.04600
Cu290      Cu  0.45581364  0.16652403  0.50000746     1.04300
C291        C  0.50000637  0.16652044  0.59782089     0.92400
C292        C  0.50000191  0.16652283  0.90218987     0.91600
C293        C  0.50000721  0.23183959  0.50000219     0.83700
C294        C  0.50001908  0.10131010  0.00001000     0.90000
O295        O  0.45870908  0.21620960  0.75000297    -0.73800
O296        O  0.45868035  0.11684501  0.74999962    -0.74800
O297        O  0.45871155  0.16651869  0.82441101    -0.63400
O298        O  0.45871489  0.16652474  0.67559651    -0.71800
O299        O  0.04128743  0.16652127  0.67559925    -0.71300
O300        O  0.04128378  0.16652666  0.82440833    -0.62600
O301        O  0.04131842  0.11684585  0.75000690    -0.75100
O302        O  0.04127476  0.21621062  0.74999308    -0.73900
Cu303      Cu  0.45579999  0.16652403  0.75000284     1.04600
Cu304      Cu  0.04419365  0.16652572  0.75000215     1.04300
C305        C  0.49999026  0.23184337  0.74999494     0.92400
C306        C  0.50000083  0.10131087  0.75000141     0.91600
C307        C  0.49999887  0.16652189  0.84781975     0.83700
C308        C  0.50000245  0.16652162  0.65218875     0.90000
O309        O  0.20871870  0.16652944  0.57441165    -0.73800
O310        O  0.20869523  0.16655370  0.92560087    -0.74800
O311        O  0.20866453  0.11685567  0.00000936    -0.63400
O312        O  0.20873341  0.21621843  0.50000368    -0.71800
O313        O  0.29129898  0.21621889  0.50000381    -0.71300
O314        O  0.29129961  0.11684970  0.00001030    -0.62600
O315        O  0.29126737  0.16653768  0.92560194    -0.75100
O316        O  0.29129115  0.16653304  0.57441438    -0.73900
Cu317      Cu  0.20578759  0.16655133  0.00000694     1.04600
Cu318      Cu  0.29420391  0.16653536  0.50000737     1.04300
C319        C  0.25000400  0.16652998  0.59782261     0.92400
C320        C  0.24998140  0.16654603  0.90219173     0.91600
C321        C  0.25000196  0.10132781  0.50000965     0.83700
C322        C  0.25000324  0.23186358  0.00000221     0.90000
O323        O  0.29130680  0.11686061  0.75001641    -0.73800
O324        O  0.29128226  0.21622397  0.75000446    -0.74800
O325        O  0.29127158  0.16654063  0.82441634    -0.63400
O326        O  0.29128487  0.16653337  0.67560464    -0.71800
O327        O  0.20871247  0.16653674  0.67559766    -0.71300
O328        O  0.20869922  0.16654884  0.82440971    -0.62600
O329        O  0.20871675  0.21622992  0.74999290    -0.75100
O330        O  0.20866851  0.11686554  0.75001013    -0.73900
Cu331      Cu  0.29418948  0.16653886  0.75001119     1.04600
Cu332      Cu  0.20579590  0.16654504  0.75000260     1.04300
C333        C  0.24998682  0.10132875  0.75001018     0.92400
C334        C  0.25000107  0.23186014  0.74999777     0.91600
C335        C  0.24998371  0.16654532  0.84782268     0.83700
C336        C  0.25000050  0.16653213  0.65219157     0.90000
O337        O  0.07440871  0.50001592  0.45879179    -0.73800
O338        O  0.42558545  0.50001072  0.45879010    -0.74800
O339        O  0.49999273  0.54968824  0.45877452    -0.63400
O340        O  0.00000733  0.95032302  0.45876355    -0.71800
O341        O  0.00001414  0.95032040  0.04122504    -0.71300
O342        O  0.50001998  0.54967145  0.04123635    -0.62600
O343        O  0.42559870  0.00000047  0.04120782    -0.75100
O344        O  0.07442199  0.99999701  0.04120986    -0.73900
Cu345      Cu  0.49999657  0.50000895  0.45587038     1.04600
Cu346      Cu  0.00001323  0.00000076  0.04412945     1.04300
C347        C  0.09783141  0.49998026  0.00000088     0.92400
C348        C  0.40219276  0.99999750  0.99999898     0.91600
C349        C  0.00001905  0.56520974  0.00000729     0.83700
C350        C  0.50001450  0.93478915  0.99999267     0.90000
O351        O  0.99999578  0.54968648  0.29121472    -0.73800
O352        O  0.99999280  0.95032355  0.29124587    -0.74800
O353        O  0.07441296  0.00000398  0.29122004    -0.63400
O354        O  0.42559607  0.50000608  0.29119687    -0.71800
O355        O  0.42559213  0.50001277  0.20877898    -0.71300
O356        O  0.07442052  0.50001648  0.20878114    -0.62600
O357        O  0.49999285  0.95032680  0.20878487    -0.75100
O358        O  0.50000009  0.54969007  0.20875245    -0.73900
Cu359      Cu  0.99999870  0.00000722  0.29414456     1.04600
Cu360      Cu  0.50000719  0.50001152  0.20585405     1.04300
C361        C  0.99999351  0.56522178  0.24998371     0.92400
C362        C  0.49999150  0.93478973  0.25001515     0.91600
C363        C  0.09782186  0.50001788  0.24999275     0.83700
C364        C  0.40218900  0.50001288  0.24998986     0.90000
O365        O  0.24999146  0.95029337  0.04122466    -0.73800
O366        O  0.24999427  0.54966201  0.04123644    -0.74800
O367        O  0.17560161  0.49997383  0.04120994    -0.63400
O368        O  0.32442506  0.49998701  0.04120814    -0.71800
O369        O  0.32440924  0.50003040  0.45879022    -0.71300
O370        O  0.17558610  0.50005399  0.45879194    -0.62600
O371        O  0.25001837  0.54973497  0.45877568    -0.75100
O372        O  0.25001777  0.95036845  0.45876268    -0.73900
Cu373      Cu  0.25001182  0.49998184  0.04413011     1.04600
Cu374      Cu  0.25001046  0.00004245  0.45586923     1.04300
C375        C  0.25001943  0.93483392  0.49999297     0.92400
C376        C  0.25002620  0.56526968  0.50000694     0.91600
C377        C  0.15218129  0.50004443  0.50000088     0.83700
C378        C  0.34781409  0.50002215  0.49999900     0.90000
O379        O  0.17559434  0.50003199  0.20879216    -0.73800
O380        O  0.32441266  0.50002924  0.20878990    -0.74800
O381        O  0.25001181  0.95035339  0.20874716    -0.63400
O382        O  0.24999680  0.54971417  0.20879538    -0.71800
O383        O  0.24999825  0.54970111  0.29125681    -0.71300
O384        O  0.25001164  0.95034032  0.29120882    -0.62600
O385        O  0.32441871  0.50001749  0.29120768    -0.75100
O386        O  0.17559055  0.50001988  0.29121032    -0.73900
Cu387      Cu  0.25000170  0.50003143  0.20587546     1.04600
Cu388      Cu  0.25000353  0.50001854  0.29413420     1.04300
C389        C  0.15218810  0.50002437  0.24999931     0.92400
C390        C  0.34782091  0.50002056  0.24999639     0.91600
C391        C  0.25001168  0.93481238  0.24997291     0.83700
C392        C  0.24999299  0.56524237  0.25003097     0.90000
O393        O  0.04131787  0.88314976  0.49998940    -0.73800
O394        O  0.04129401  0.78378022  0.49999576    -0.74800
O395        O  0.04128370  0.83346282  0.42558665    -0.63400
O396        O  0.04128355  0.83347564  0.07440102    -0.71800
O397        O  0.45871149  0.83348759  0.07439913    -0.71300
O398        O  0.45871124  0.83347165  0.42558993    -0.62600
O399        O  0.45870683  0.78379566  0.99999578    -0.75100
O400        O  0.45868740  0.88316645  0.99998980    -0.73900
Cu401      Cu  0.04419856  0.83346436  0.49999227     1.04600
Cu402      Cu  0.45580146  0.83348486  0.99999241     1.04300
C403        C  0.50000112  0.89868984  0.49998964     0.92400
C404        C  0.49998672  0.76815711  0.99999763     0.91600
C405        C  0.49999586  0.83346562  0.40217922     0.83700
C406        C  0.49999682  0.83348388  0.09781031     0.90000
O407        O  0.45870513  0.83346708  0.32440254    -0.73800
O408        O  0.45870635  0.83348811  0.17558835    -0.74800
O409        O  0.45870734  0.78378901  0.24998605    -0.62200
O410        O  0.45867006  0.88316086  0.25000887    -0.71800
O411        O  0.04130682  0.88315552  0.25001174    -0.71300
O412        O  0.04127249  0.78378402  0.24999437    -0.62600
O413        O  0.04127834  0.83347862  0.17559313    -0.75100
O414        O  0.04127773  0.83346152  0.32440224    -0.73900
Cu415      Cu  0.45579339  0.83347645  0.24999574     1.04600
Cu416      Cu  0.04418603  0.83346981  0.25000012     1.04300
C417        C  0.49999216  0.83346380  0.34781149     0.92400
C418        C  0.49999378  0.83348498  0.15218057     0.91600
C419        C  0.49998927  0.76815303  0.24999425     0.83700
C420        C  0.49998929  0.89869501  0.25001354     0.90000
O421        O  0.20869820  0.78385819  0.49999652    -0.73800
O422        O  0.20869380  0.88321865  0.49999012    -0.74800
O423        O  0.20871519  0.83354318  0.42558388    -0.63400
O424        O  0.20870546  0.83344507  0.07439769    -0.71800
O425        O  0.29127808  0.83344976  0.07439595    -0.71300
O426        O  0.29128738  0.83353487  0.42558609    -0.62600
O427        O  0.29129533  0.88312861  0.99999017    -0.75100
O428        O  0.29129292  0.78376193  0.99999654    -0.73900
Cu429      Cu  0.20580147  0.83354268  0.49999302     1.04600
Cu430      Cu  0.29418825  0.83344656  0.99999312     1.04300
C431        C  0.24997928  0.76822203  0.49999819     0.92400
C432        C  0.24997629  0.89866519  0.99999014     0.91600
C433        C  0.25000229  0.83353703  0.40217470     0.83700
C434        C  0.24999250  0.83345430  0.09780572     0.90000
O435        O  0.20872370  0.78381585  0.25001347    -0.73800
O436        O  0.20868898  0.88318613  0.24996041    -0.74800
O437        O  0.20871096  0.83348171  0.17558444    -0.63400
O438        O  0.20871925  0.83352326  0.32439386    -0.71800
O439        O  0.29129130  0.83351523  0.32439415    -0.71300
O440        O  0.29128348  0.83348422  0.17558009    -0.62600
O441        O  0.29132625  0.88318153  0.24996537    -0.75100
O442        O  0.29128903  0.78381321  0.25000289    -0.73900
Cu443      Cu  0.20580783  0.83350239  0.24998816     1.04600
Cu444      Cu  0.29420073  0.83349905  0.24998528     1.04300
C445        C  0.25000657  0.76818107  0.25000682     0.92400
C446        C  0.25000880  0.89871976  0.24996261     0.91600
C447        C  0.24999561  0.83347376  0.15217326     0.83700
C448        C  0.25000482  0.83352627  0.34780423     0.90000
O449        O  0.04127495  0.66652717  0.07441176    -0.73800
O450        O  0.04129520  0.66651380  0.42559724    -0.74800
O451        O  0.04129332  0.71620510  0.50000408    -0.63400
O452        O  0.04132763  0.61684256  0.00001041    -0.71800
O453        O  0.45869069  0.61683915  0.00001004    -0.71300
O454        O  0.45872807  0.71621177  0.50000405    -0.62600
O455        O  0.45872325  0.66652511  0.42560047    -0.75100
O456        O  0.45870235  0.66652662  0.07440951    -0.73900
Cu457      Cu  0.04420555  0.66651759  0.50000749     1.04600
Cu458      Cu  0.45579658  0.66652555  0.00000741     1.04300
C459        C  0.49998744  0.66652937  0.09781938     0.92400
C460        C  0.50000795  0.66651587  0.40218833     0.91600
C461        C  0.49998385  0.73184806  0.00000215     0.83700
C462        C  0.50000099  0.60130877  0.50000999     0.90000
O463        O  0.45870522  0.71621423  0.25001340    -0.73800
O464        O  0.45867121  0.61684823  0.24999717    -0.74800
O465        O  0.45871289  0.66651920  0.32441284    -0.63400
O466        O  0.45870045  0.66653603  0.17559833    -0.71800
O467        O  0.04127304  0.66653361  0.17559253    -0.71300
O468        O  0.04128512  0.66650973  0.32440139    -0.62600
O469        O  0.04130927  0.61684526  0.24997571    -0.75100
O470        O  0.04127048  0.71621005  0.25000383    -0.73900
Cu471      Cu  0.45579328  0.66652929  0.25000617     1.04600
Cu472      Cu  0.04418668  0.66652406  0.24999302     1.04300
C473        C  0.49998829  0.73184549  0.25000498     0.92400
C474        C  0.49999048  0.60131198  0.24998417     0.91600
C475        C  0.50000231  0.66651283  0.34781747     0.83700
C476        C  0.49998601  0.66653397  0.15218656     0.90000
O477        O  0.20870640  0.66651424  0.07441582    -0.73800
O478        O  0.20871720  0.66659010  0.42560455    -0.74800
O479        O  0.20870280  0.61690437  0.50000935    -0.63400
O480        O  0.20872644  0.71619473  0.00000360    -0.71800
O481        O  0.29129239  0.71618660  0.00000373    -0.71300
O482        O  0.29133849  0.61691065  0.50001016    -0.62600
O483        O  0.29128974  0.66660003  0.42560400    -0.75100
O484        O  0.29127835  0.66650416  0.07441593    -0.73900
Cu485      Cu  0.20580703  0.66659152  0.50000680     1.04600
Cu486      Cu  0.29419078  0.66650259  0.00000732     1.04300
C487        C  0.24999231  0.66651383  0.09782649     0.92400
C488        C  0.25000322  0.66659042  0.40219558     0.91600
C489        C  0.24998323  0.60129041  0.00000963     0.83700
C490        C  0.24998096  0.73191564  0.50000217     0.90000
O491        O  0.29130965  0.61686908  0.25003482    -0.73800
O492        O  0.29128764  0.71623734  0.24999597    -0.74800
O493        O  0.29128693  0.66656557  0.32441790    -0.63400
O494        O  0.29128019  0.66653405  0.17560630    -0.71800
O495        O  0.20870820  0.66654018  0.17560986    -0.71300
O496        O  0.20871427  0.66657222  0.32442179    -0.62600
O497        O  0.20872226  0.71624283  0.25000121    -0.75100
O498        O  0.20867236  0.61687340  0.25004139    -0.73900
Cu499      Cu  0.29419395  0.66655080  0.25001350     1.04600
Cu500      Cu  0.20580082  0.66655738  0.25001871     1.04300
C501        C  0.24999069  0.60133528  0.25003977     0.92400
C502        C  0.25000603  0.73187349  0.25000119     0.91600
C503        C  0.25000165  0.66657598  0.34782863     0.83700
C504        C  0.24999327  0.66652895  0.15219758     0.90000
O505        O  0.07442733  0.49998713  0.95879162    -0.73800
O506        O  0.42560411  0.49999715  0.95879026    -0.74800
O507        O  0.50002044  0.54967748  0.95877524    -0.63400
O508        O  0.00001495  0.95032638  0.95876331    -0.71800
O509        O  0.00000670  0.95031699  0.54122455    -0.71300
O510        O  0.49999214  0.54968227  0.54123674    -0.62600
O511        O  0.42559870  0.00000888  0.54120816    -0.75100
O512        O  0.07442181  0.00000115  0.54120963    -0.73900
Cu513      Cu  0.50001714  0.49999437  0.95587041     1.04600
Cu514      Cu  0.00001004  0.00000082  0.54412947     1.04300
C515        C  0.09781359  0.50002314  0.50000088     0.92400
C516        C  0.40219409  0.00001935  0.49999899     0.91600
C517        C  0.99999404  0.56521873  0.50000713     0.83700
C518        C  0.50000535  0.93478454  0.49999251     0.90000
O519        O  0.99999953  0.54968401  0.79125926    -0.73800
O520        O  0.99999209  0.95032065  0.79120302    -0.74800
O521        O  0.07440831  0.00000173  0.79119949    -0.63400
O522        O  0.42559176  0.50000640  0.79121911    -0.71800
O523        O  0.42559635  0.50001246  0.70880120    -0.71300
O524        O  0.07441471  0.50001789  0.70880250    -0.62600
O525        O  0.49999347  0.95032962  0.70874202    -0.75100
O526        O  0.49999612  0.54969255  0.70879708    -0.73900
Cu527      Cu  0.99999787  0.00000427  0.79411442     1.04600
Cu528      Cu  0.50000565  0.50001272  0.70588665     1.04300
C529        C  0.99999356  0.56522179  0.75003114     0.92400
C530        C  0.49999162  0.93478967  0.74996967     0.91600
C531        C  0.09782184  0.50001789  0.75000920     0.83700
C532        C  0.40218894  0.50001289  0.75000790     0.90000
O533        O  0.25001827  0.95036266  0.54122609    -0.73800
O534        O  0.25001950  0.54972905  0.54123529    -0.74800
O535        O  0.17558663  0.50004789  0.54120956    -0.63400
O536        O  0.32440978  0.50002422  0.54120803    -0.71800
O537        O  0.32442450  0.49999312  0.95879018    -0.71300
O538        O  0.17560107  0.49997990  0.95879150    -0.62600
O539        O  0.24999329  0.54966786  0.95877447    -0.75100
O540        O  0.24999106  0.95029930  0.95876403    -0.73900
Cu541      Cu  0.24999894  0.50003799  0.54412836     1.04600
Cu542      Cu  0.25000059  0.99998602  0.95587143     1.04300
C543        C  0.24998133  0.93476041  0.99999288     0.92400
C544        C  0.24998618  0.56519891  0.00000689     0.91600
C545        C  0.15219719  0.49997628  0.00000087     0.83700
C546        C  0.34783011  0.49999085  0.99999904     0.90000
O547        O  0.17558995  0.50002601  0.70879152    -0.73800
O548        O  0.32441805  0.50002335  0.70879049    -0.74800
O549        O  0.25001036  0.95034606  0.70878057    -0.63400
O550        O  0.24999765  0.54970685  0.70875409    -0.71800
O551        O  0.24999748  0.54970830  0.79121552    -0.71300
O552        O  0.25001284  0.95034768  0.79124223    -0.62600
O553        O  0.32441327  0.50002330  0.79120827    -0.75100
O554        O  0.17559490  0.50002581  0.79120967    -0.73900
Cu555      Cu  0.25000262  0.50002486  0.70586595     1.04600
Cu556      Cu  0.25000249  0.50002494  0.79412467     1.04300
C557        C  0.15218809  0.50002438  0.75000287     0.92400
C558        C  0.34782091  0.50002056  0.75000163     0.91600
C559        C  0.25001161  0.93481239  0.75001372     0.83700
C560        C  0.24999306  0.56524230  0.74998277     0.90000
O561        O  0.04132481  0.88315648  0.99998949    -0.73800
O562        O  0.04127181  0.78378670  0.99999583    -0.74800
O563        O  0.04128297  0.83347566  0.92558365    -0.63400
O564        O  0.04128426  0.83346281  0.57439791    -0.71800
O565        O  0.45871178  0.83347141  0.57439466    -0.71300
O566        O  0.45871103  0.83348785  0.92558565    -0.62600
O567        O  0.45872874  0.78378422  0.49999570    -0.75100
O568        O  0.45868117  0.88315632  0.49998971    -0.73900
Cu569      Cu  0.04419432  0.83347331  0.99999233     1.04600
Cu570      Cu  0.45580581  0.83347152  0.49999232     1.04300
C571        C  0.50000902  0.89869713  0.99998978     0.92400
C572        C  0.50001170  0.76814893  0.49999760     0.91600
C573        C  0.49999616  0.83348402  0.90217440     0.83700
C574        C  0.49999652  0.83346550  0.59780532     0.90000
O575        O  0.45870570  0.83348814  0.82439607    -0.73800
O576        O  0.45870586  0.83346710  0.67558178    -0.74800
O577        O  0.45870727  0.78378903  0.75000537    -0.62200
O578        O  0.45867011  0.88316085  0.74996980    -0.71800
O579        O  0.04130685  0.88315544  0.74996725    -0.71300
O580        O  0.04127248  0.78378403  0.74999746    -0.62600
O581        O  0.04127819  0.83346135  0.67558244    -0.75100
O582        O  0.04127778  0.83347866  0.82439169    -0.73900
Cu583      Cu  0.45579354  0.83347646  0.74998854     1.04600
Cu584      Cu  0.04418596  0.83346977  0.74998458     1.04300
C585        C  0.49999319  0.83348507  0.84780409     0.92400
C586        C  0.49999291  0.83346367  0.65217298     0.91600
C587        C  0.49998916  0.76815304  0.75000106     0.83700
C588        C  0.49998938  0.89869496  0.74996544     0.90000
O589        O  0.20872693  0.78375930  0.99999651    -0.73800
O590        O  0.20865848  0.88312810  0.99999019    -0.74800
O591        O  0.20870537  0.83344504  0.92558848    -0.63400
O592        O  0.20871541  0.83354340  0.57440216    -0.71800
O593        O  0.29128761  0.83353504  0.57439999    -0.71300
O594        O  0.29127798  0.83344955  0.92559032    -0.62600
O595        O  0.29133271  0.88321007  0.49999039    -0.75100
O596        O  0.29126401  0.78385130  0.49999650    -0.73900
Cu597      Cu  0.20579475  0.83344213  0.99999308     1.04600
Cu598      Cu  0.29419537  0.83353331  0.49999306     1.04300
C599        C  0.25001210  0.76812822  0.99999812     0.92400
C600        C  0.25001574  0.89874755  0.49999034     0.91600
C601        C  0.24999236  0.83345404  0.90218047     0.83700
C602        C  0.25000256  0.83353735  0.59781137     0.90000
O603        O  0.20872357  0.78381584  0.74997896    -0.73800
O604        O  0.20868894  0.88318614  0.75002059    -0.74800
O605        O  0.20871948  0.83352358  0.67559197    -0.63400
O606        O  0.20871069  0.83348128  0.82440156    -0.71800
O607        O  0.29128321  0.83348379  0.82440617    -0.71300
O608        O  0.29129151  0.83351555  0.67559218    -0.62600
O609        O  0.29132621  0.88318153  0.75001613    -0.75100
O610        O  0.29128890  0.78381323  0.74999000    -0.73900
Cu611      Cu  0.20580773  0.83350238  0.74999771     1.04600
Cu612      Cu  0.29420062  0.83349904  0.75000116     1.04300
C613        C  0.25000651  0.76818107  0.74998922     0.92400
C614        C  0.25000873  0.89871976  0.75001880     0.91600
C615        C  0.25000512  0.83352661  0.65218184     0.83700
C616        C  0.24999537  0.83347333  0.84781290     0.90000
O617        O  0.04129498  0.66651356  0.57441782    -0.73800
O618        O  0.04127508  0.66652722  0.92560357    -0.74800
O619        O  0.04126670  0.71621338  0.00000407    -0.63400
O620        O  0.04132307  0.61683845  0.50001010    -0.71800
O621        O  0.45868518  0.61684850  0.50001013    -0.71300
O622        O  0.45870162  0.71621462  0.00000398    -0.62600
O623        O  0.45870248  0.66652671  0.92560542    -0.75100
O624        O  0.45872304  0.66652505  0.57441446    -0.73900
Cu625      Cu  0.04418978  0.66652695  0.00000769     1.04600
Cu626      Cu  0.45581301  0.66652819  0.50000746     1.04300
C627        C  0.50000789  0.66651569  0.59782665     0.92400
C628        C  0.49998760  0.66652951  0.90219575     0.91600
C629        C  0.50001168  0.73184169  0.50000219     0.83700
C630        C  0.50001226  0.60130412  0.00001012     0.90000
O631        O  0.45870510  0.71621424  0.74999430    -0.73800
O632        O  0.45867109  0.61684824  0.75002367    -0.74800
O633        O  0.45870055  0.66653629  0.82441669    -0.63400
O634        O  0.45871285  0.66651897  0.67560212    -0.71800
O635        O  0.04128491  0.66650970  0.67561365    -0.71300
O636        O  0.04127330  0.66653368  0.82442264    -0.62600
O637        O  0.04130922  0.61684529  0.75004504    -0.75100
O638        O  0.04127063  0.71621009  0.75000420    -0.73900
Cu639      Cu  0.45579319  0.66652930  0.75000881     1.04600
Cu640      Cu  0.04418684  0.66652407  0.75002204     1.04300
C641        C  0.49998817  0.73184549  0.74999926     0.92400
C642        C  0.49999036  0.60131199  0.75003641     0.91600
C643        C  0.49998611  0.66653419  0.84782853     0.83700
C644        C  0.50000216  0.66651263  0.65219752     0.90000
O645        O  0.20871644  0.66658982  0.57440921    -0.73800
O646        O  0.20870719  0.66651451  0.92559780    -0.74800
O647        O  0.20866533  0.61682892  0.00000927    -0.63400
O648        O  0.20870167  0.71627959  0.50000369    -0.71800
O649        O  0.29126717  0.71628554  0.50000384    -0.71300
O650        O  0.29130284  0.61682278  0.00001011    -0.62600
O651        O  0.29127915  0.66650396  0.92559859    -0.75100
O652        O  0.29128897  0.66660003  0.57441060    -0.73900
Cu653      Cu  0.20579783  0.66651262  0.00000671     1.04600
Cu654      Cu  0.29419934  0.66660110  0.50000738     1.04300
C655        C  0.25000234  0.66659035  0.59781858     0.92400
C656        C  0.24999335  0.66651379  0.90218763     0.91600
C657        C  0.25002400  0.60136885  0.50000971     0.83700
C658        C  0.25001189  0.73182301  0.00000205     0.90000
O659        O  0.29130957  0.61686910  0.74998429    -0.73800
O660        O  0.29128764  0.71623736  0.75001117    -0.74800
O661        O  0.29128112  0.66653399  0.82440775    -0.63400
O662        O  0.29128608  0.66656581  0.67559607    -0.71800
O663        O  0.20871344  0.66657222  0.67559238    -0.71300
O664        O  0.20870918  0.66653990  0.82440432    -0.62600
O665        O  0.20872231  0.71624274  0.75000628    -0.75100
O666        O  0.20867232  0.61687331  0.74997807    -0.73900
Cu667      Cu  0.29419388  0.66655084  0.75000035     1.04600
Cu668      Cu  0.20580099  0.66655723  0.74999550     1.04300
C669        C  0.24999067  0.60133523  0.74997935     0.92400
C670        C  0.25000598  0.73187348  0.75000287     0.91600
C671        C  0.24999430  0.66652883  0.84781655     0.83700
C672        C  0.25000066  0.66657606  0.65218548     0.90000
O673        O  0.57442222  0.00000752  0.45879165    -0.73800
O674        O  0.92559892  0.00001519  0.45879013    -0.74800
O675        O  0.00001392  0.04968658  0.45877472    -0.63400
O676        O  0.49999963  0.45032319  0.45876381    -0.71800
O677        O  0.50001381  0.45030769  0.04122514    -0.71300
O678        O  0.00001700  0.04968183  0.04123653    -0.62600
O679        O  0.92560374  0.49999095  0.04120807    -0.75100
O680        O  0.57442693  0.49998072  0.04120983    -0.73900
Cu681      Cu  0.00001065  0.00000745  0.45587032     1.04600
Cu682      Cu  0.50001654  0.49998764  0.04412943     1.04300
C683        C  0.59782575  0.99999663  0.00000081     0.92400
C684        C  0.90219854  0.49999317  0.99999907     0.91600
C685        C  0.50002019  0.06521882  0.00000712     0.83700
C686        C  0.00001268  0.43477682  0.99999264     0.90000
O687        O  0.50000387  0.04968622  0.29124978    -0.73800
O688        O  0.50001109  0.45032166  0.29120708    -0.74800
O689        O  0.57441421  0.50001150  0.29119925    -0.63400
O690        O  0.92558541  0.00001718  0.29121998    -0.71800
O691        O  0.92558937  0.00002062  0.20880186    -0.71300
O692        O  0.57440865  0.00000813  0.20880212    -0.62600
O693        O  0.00001221  0.45032685  0.20874619    -0.75100
O694        O  0.00000269  0.04968974  0.20878746    -0.73900
Cu695      Cu  0.50000513  0.50000594  0.29411317     1.04600
Cu696      Cu  0.99999832  0.00001105  0.20588539     1.04300
C697        C  0.50000337  0.06522126  0.25001912     0.92400
C698        C  0.00000921  0.43478859  0.24997538     0.91600
C699        C  0.59781582  0.00000910  0.25000932     0.83700
C700        C  0.90218285  0.00002455  0.25000909     0.90000
O701        O  0.75002612  0.45030740  0.04122621    -0.73800
O702        O  0.74999769  0.04967086  0.04123523    -0.74800
O703        O  0.67559359  0.99998296  0.04120990    -0.63400
O704        O  0.82441671  0.99997646  0.04120778    -0.71800
O705        O  0.82442201  0.00004297  0.45878986    -0.71300
O706        O  0.67559855  0.00003747  0.45879158    -0.62600
O707        O  0.75000387  0.04971489  0.45877354    -0.75100
O708        O  0.74997878  0.45035271  0.45876471    -0.73900
Cu709      Cu  0.75000122  0.99997946  0.04412865     1.04600
Cu710      Cu  0.74999831  0.50004452  0.45587145     1.04300
C711        C  0.74997225  0.43481153  0.49999289     0.92400
C712        C  0.75000379  0.06524296  0.50000688     0.91600
C713        C  0.65219410  0.00002769  0.50000081     0.83700
C714        C  0.84782692  0.00003476  0.49999896     0.90000
O715        O  0.67558650  0.00002768  0.20879313    -0.73800
O716        O  0.82441407  0.00003938  0.20879243    -0.74800
O717        O  0.75000103  0.45034499  0.20876013    -0.63400
O718        O  0.74999003  0.04971028  0.20877597    -0.71800
O719        O  0.74998802  0.04970275  0.29123846    -0.71300
O720        O  0.75000397  0.45033587  0.29122101    -0.62600
O721        O  0.82440939  0.00002866  0.29121063    -0.75100
O722        O  0.67559036  0.00001602  0.29121117    -0.73900
Cu723      Cu  0.75000098  0.00003408  0.20586723     1.04600
Cu724      Cu  0.75000014  0.00002220  0.29412701     1.04300
C725        C  0.65218347  0.00001780  0.25000385     0.92400
C726        C  0.84781626  0.00003289  0.25000355     0.91600
C727        C  0.75000026  0.43480474  0.24998827     0.83700
C728        C  0.74998664  0.06523955  0.25000868     0.90000
O729        O  0.54131646  0.38315012  0.49998941    -0.73800
O730        O  0.54128922  0.28377851  0.49999576    -0.74800
O731        O  0.54128781  0.33346572  0.42558522    -0.63400
O732        O  0.54127611  0.33346517  0.07439820    -0.71800
O733        O  0.95870365  0.33347507  0.07439729    -0.71300
O734        O  0.95871560  0.33346792  0.42558673    -0.62600
O735        O  0.95870311  0.28378753  0.99999578    -0.75100
O736        O  0.95868343  0.38315565  0.99998979    -0.73900
Cu737      Cu  0.54419870  0.33346442  0.49999227     1.04600
Cu738      Cu  0.95579487  0.33347455  0.99999238     1.04300
C739        C  0.99999797  0.39868841  0.49998973     0.92400
C740        C  0.99998523  0.26815164  0.99999764     0.91600
C741        C  0.00000106  0.33346953  0.40217617     0.83700
C742        C  0.99998943  0.33346922  0.09780717     0.90000
O743        O  0.95871129  0.33347606  0.32439892    -0.73800
O744        O  0.95870309  0.33346809  0.17558615    -0.74800
O745        O  0.95870479  0.28378529  0.25000318    -0.62200
O746        O  0.95868325  0.38315930  0.24998072    -0.71800
O747        O  0.54131987  0.38315335  0.24997526    -0.71300
O748        O  0.54127007  0.28378314  0.25000175    -0.62600
O749        O  0.54127529  0.33346466  0.17558447    -0.75100
O750        O  0.54128354  0.33347509  0.32439507    -0.73900
Cu751      Cu  0.95579671  0.33347249  0.24999244     1.04600
Cu752      Cu  0.54418912  0.33346897  0.24998887     1.04300
C753        C  0.99999862  0.33347457  0.34780681     0.92400
C754        C  0.99998887  0.33346697  0.15217582     0.91600
C755        C  0.99998769  0.26815078  0.25000538     0.83700
C756        C  0.00000351  0.39869336  0.24997461     0.90000
O757        O  0.70872355  0.28378824  0.49999653    -0.73800
O758        O  0.70866269  0.38316702  0.49999009    -0.74800
O759        O  0.70870487  0.33347156  0.42558724    -0.63400
O760        O  0.70874307  0.33349237  0.07439691    -0.71800
O761        O  0.79131558  0.33348344  0.07440122    -0.71300
O762        O  0.79127694  0.33348817  0.42558731    -0.62600
O763        O  0.79135087  0.38315755  0.99999025    -0.75100
O764        O  0.79130500  0.28379621  0.99999660    -0.73900
Cu765      Cu  0.70579704  0.33347340  0.49999303     1.04600
Cu766      Cu  0.79422694  0.33348050  0.99999313     1.04300
C767        C  0.75001025  0.26815914  0.49999819     0.92400
C768        C  0.75003167  0.39869290  0.99999040     0.91600
C769        C  0.74999059  0.33348065  0.40217757     0.83700
C770        C  0.75002764  0.33348948  0.09780861     0.90000
O771        O  0.70872132  0.28380246  0.24998916    -0.73800
O772        O  0.70868037  0.38317390  0.24998112    -0.74800
O773        O  0.70873048  0.33349033  0.17558033    -0.63400
O774        O  0.70870750  0.33348679  0.32439444    -0.71800
O775        O  0.79127970  0.33348394  0.32440295    -0.71300
O776        O  0.79130275  0.33348843  0.17559364    -0.62600
O777        O  0.79131698  0.38317122  0.24999777    -0.75100
O778        O  0.79128668  0.28379908  0.25000190    -0.73900
Cu779      Cu  0.70580627  0.33348841  0.24998545     1.04600
Cu780      Cu  0.79419880  0.33348582  0.24999961     1.04300
C781        C  0.75000351  0.26816741  0.24999890     0.92400
C782        C  0.74999873  0.39870958  0.24998644     0.91600
C783        C  0.75002070  0.33349019  0.15217744     0.83700
C784        C  0.74999176  0.33348382  0.34780841     0.90000
O785        O  0.54128881  0.16652526  0.07441618    -0.73800
O786        O  0.54129413  0.16651868  0.42560181    -0.74800
O787        O  0.54129018  0.21620522  0.50000403    -0.63400
O788        O  0.54133629  0.11684606  0.00001029    -0.71800
O789        O  0.95869873  0.11684470  0.00001000    -0.71300
O790        O  0.95872447  0.21620802  0.50000408    -0.62600
O791        O  0.95872164  0.16652318  0.42560468    -0.75100
O792        O  0.95871685  0.16652315  0.07441370    -0.73900
Cu793      Cu  0.54420728  0.16652040  0.50000755     1.04600
Cu794      Cu  0.95580820  0.16652510  0.00000740     1.04300
C795        C  0.00000178  0.16652269  0.09782512     0.92400
C796        C  0.00000655  0.16652057  0.40219416     0.91600
C797        C  0.99998803  0.23184477  0.00000214     0.83700
C798        C  0.00001592  0.10130735  0.50001015     0.90000
O799        O  0.95870925  0.21620957  0.25000458    -0.73800
O800        O  0.95868042  0.11684511  0.25002101    -0.74800
O801        O  0.95871514  0.16652493  0.32441845    -0.63400
O802        O  0.95871141  0.16651863  0.17560397    -0.71800
O803        O  0.54128368  0.16652664  0.17560684    -0.71300
O804        O  0.54128750  0.16652126  0.32441580    -0.62600
O805        O  0.54131836  0.11684593  0.25001368    -0.75100
O806        O  0.54127467  0.21621063  0.25001477    -0.73900
Cu807      Cu  0.95580023  0.16652406  0.25001207     1.04600
Cu808      Cu  0.54419360  0.16652574  0.25001284     1.04300
C809        C  0.99999044  0.23184337  0.25000917     0.92400
C810        C  0.00000083  0.10131095  0.25001912     0.91600
C811        C  0.00000277  0.16652175  0.34782627     0.83700
C812        C  0.99999869  0.16652180  0.15219524     0.90000
O813        O  0.70869441  0.16655345  0.07441311    -0.73800
O814        O  0.70871947  0.16652970  0.42560198    -0.74800
O815        O  0.70868154  0.11686030  0.50000933    -0.63400
O816        O  0.70871421  0.21623834  0.00000370    -0.71800
O817        O  0.79127975  0.21622263  0.00000398    -0.71300
O818        O  0.79132090  0.11686025  0.50001018    -0.62600
O819        O  0.79129191  0.16653283  0.42560013    -0.75100
O820        O  0.79126658  0.16653770  0.07441268    -0.73900
Cu821      Cu  0.70580998  0.16653391  0.50000676     1.04600
Cu822      Cu  0.79417951  0.16653703  0.00000740     1.04300
C823        C  0.74998057  0.16654602  0.09782254     0.92400
C824        C  0.75000490  0.16652992  0.40219145     0.91600
C825        C  0.74998226  0.10131309  0.00000976     0.83700
C826        C  0.75001549  0.23185177  0.50000216     0.90000
O827        O  0.79130693  0.11686057  0.25000263    -0.73800
O828        O  0.79128220  0.21622396  0.25000266    -0.74800
O829        O  0.79128568  0.16653311  0.32440928    -0.63400
O830        O  0.79127080  0.16654087  0.17559776    -0.71800
O831        O  0.70869842  0.16654888  0.17560453    -0.71300
O832        O  0.70871329  0.16653669  0.32441645    -0.62600
O833        O  0.70871670  0.21622991  0.25001450    -0.75100
O834        O  0.70866866  0.11686550  0.25000931    -0.73900
Cu835      Cu  0.79418946  0.16653885  0.25000266     1.04600
Cu836      Cu  0.70579588  0.16654503  0.25001159     1.04300
C837        C  0.74998696  0.10132869  0.25000881     0.92400
C838        C  0.75000102  0.23186013  0.25000617     0.91600
C839        C  0.75000151  0.16653199  0.34782247     0.83700
C840        C  0.74998273  0.16654543  0.15219153     0.90000
O841        O  0.57442237  0.00000339  0.95879138    -0.73800
O842        O  0.92559905  0.00000659  0.95879031    -0.74800
O843        O  0.00001744  0.04968781  0.95877469    -0.63400
O844        O  0.50001435  0.45031373  0.95876319    -0.71800
O845        O  0.49999897  0.45031720  0.54122449    -0.71300
O846        O  0.00001330  0.04968060  0.54123693    -0.62600
O847        O  0.92558509  0.50000461  0.54120819    -0.75100
O848        O  0.57440845  0.50000962  0.54120970    -0.73900
Cu849      Cu  0.00001387  0.00000736  0.95587031     1.04600
Cu850      Cu  0.49999597  0.50000237  0.54412944     1.04300
C851        C  0.59782689  0.00001098  0.50000083     0.92400
C852        C  0.90218074  0.50001156  0.49999903     0.91600
C853        C  0.50001498  0.06521711  0.50000731     0.83700
C854        C  0.99999819  0.43478422  0.49999264     0.90000
O855        O  0.50000237  0.04968361  0.79122423    -0.73800
O856        O  0.50001161  0.45032072  0.79124180    -0.74800
O857        O  0.57442011  0.50001011  0.79122065    -0.63400
O858        O  0.92558917  0.00001427  0.79119630    -0.71800
O859        O  0.92558583  0.00002356  0.70877817    -0.71300
O860        O  0.57441331  0.00001037  0.70878157    -0.62600
O861        O  0.00001175  0.45032780  0.70878092    -0.75100
O862        O  0.00000419  0.04969232  0.70876190    -0.73900
Cu863      Cu  0.50000651  0.50000476  0.79414576     1.04600
Cu864      Cu  0.99999924  0.00001400  0.70585524     1.04300
C865        C  0.50000348  0.06522122  0.74999567     0.92400
C866        C  0.00000922  0.43478860  0.75000948     0.91600
C867        C  0.59781576  0.00000911  0.74999269     0.83700
C868        C  0.90218295  0.00002457  0.74998889     0.90000
O869        O  0.74997960  0.45034679  0.54122404    -0.73800
O870        O  0.75000477  0.04970898  0.54123727    -0.74800
O871        O  0.67559913  0.00003152  0.54120989    -0.63400
O872        O  0.82442252  0.00003664  0.54120820    -0.71800
O873        O  0.82441620  0.99998262  0.95879058    -0.71300
O874        O  0.67559311  0.99998913  0.95879160    -0.62600
O875        O  0.74999698  0.04967675  0.95877598    -0.75100
O876        O  0.75002535  0.45031316  0.95876283    -0.73900
Cu877      Cu  0.75001114  0.00003594  0.54413054     1.04600
Cu878      Cu  0.75001100  0.49998823  0.95586971     1.04300
C879        C  0.75002990  0.43477872  0.99999311     0.92400
C880        C  0.74998853  0.06521212  0.00000705     0.91600
C881        C  0.65218989  0.99998870  0.00000082     0.83700
C882        C  0.84782266  0.99998385  0.99999899     0.90000
O883        O  0.67558986  0.00002227  0.70879072    -0.73800
O884        O  0.82440892  0.00003455  0.70878770    -0.74800
O885        O  0.75000311  0.45034158  0.70876847    -0.63400
O886        O  0.74998730  0.04970861  0.70877245    -0.71800
O887        O  0.74999084  0.04970459  0.79123494    -0.71300
O888        O  0.75000217  0.45033923  0.79122937    -0.62600
O889        O  0.82441484  0.00003352  0.79120590    -0.75100
O890        O  0.67558710  0.00002157  0.79120874    -0.73900
Cu891      Cu  0.74999945  0.00002858  0.70587313     1.04600
Cu892      Cu  0.75000197  0.00002777  0.79413291     1.04300
C893        C  0.65218349  0.00001786  0.74999816     0.92400
C894        C  0.84781639  0.00003290  0.74999445     0.91600
C895        C  0.75000038  0.43480472  0.74999843     0.83700
C896        C  0.74998667  0.06523963  0.75000504     0.90000
O897        O  0.54132132  0.38314544  0.99998949    -0.73800
O898        O  0.54126862  0.28378192  0.99999583    -0.74800
O899        O  0.54127553  0.33346520  0.92558642    -0.63400
O900        O  0.54128835  0.33346571  0.57439935    -0.71800
O901        O  0.95871613  0.33346767  0.57439788    -0.71300
O902        O  0.95870310  0.33347531  0.92558738    -0.62600
O903        O  0.95872377  0.28378043  0.49999570    -0.75100
O904        O  0.95867998  0.38315220  0.49998972    -0.73900
Cu905      Cu  0.54418827  0.33346453  0.99999233     1.04600
Cu906      Cu  0.95580609  0.33346647  0.49999232     1.04300
C907        C  0.00000562  0.39868572  0.99998977     0.92400
C908        C  0.00000689  0.26814630  0.49999760     0.91600
C909        C  0.99998879  0.33346947  0.90217744     0.83700
C910        C  0.00000168  0.33346941  0.59780840     0.90000
O911        O  0.95870238  0.33346833  0.82439819    -0.73800
O912        O  0.95871201  0.33347586  0.67558549    -0.74800
O913        O  0.95870482  0.28378530  0.74998851    -0.62200
O914        O  0.95868333  0.38315929  0.74999788    -0.71800
O915        O  0.54131986  0.38315334  0.75000372    -0.71300
O916        O  0.54127006  0.28378312  0.74999028    -0.62600
O917        O  0.54128404  0.33347507  0.67558962    -0.75100
O918        O  0.54127471  0.33346488  0.82440028    -0.73900
Cu919      Cu  0.95579667  0.33347249  0.74999187     1.04600
Cu920      Cu  0.54418905  0.33346900  0.74999586     1.04300
C921        C  0.99998817  0.33346726  0.84780875     0.92400
C922        C  0.99999935  0.33347444  0.65217774     0.91600
C923        C  0.99998782  0.26815079  0.74999008     0.83700
C924        C  0.00000361  0.39869337  0.75000437     0.90000
O925        O  0.70873910  0.28380845  0.99999656    -0.73800
O926        O  0.70871165  0.38316264  0.99999027    -0.74800
O927        O  0.70874298  0.33349239  0.92558939    -0.63400
O928        O  0.70870503  0.33347179  0.57439885    -0.71800
O929        O  0.79127709  0.33348821  0.57439883    -0.71300
O930        O  0.79131549  0.33348327  0.92558509    -0.62600
O931        O  0.79129785  0.38317597  0.49999013    -0.75100
O932        O  0.79128871  0.28379719  0.49999650    -0.73900
Cu933      Cu  0.70583260  0.33348975  0.99999312     1.04600
Cu934      Cu  0.79418856  0.33348753  0.49999303     1.04300
C935        C  0.75001733  0.26816972  0.99999824     0.92400
C936        C  0.74997612  0.39871089  0.49999014     0.91600
C937        C  0.75002747  0.33348936  0.90217769     0.83700
C938        C  0.74999095  0.33348093  0.59780857     0.90000
O939        O  0.70872141  0.28380248  0.75000329    -0.73800
O940        O  0.70868040  0.38317394  0.74999975    -0.74800
O941        O  0.70870785  0.33348723  0.67559157    -0.63400
O942        O  0.70873026  0.33349009  0.82440570    -0.71800
O943        O  0.79130249  0.33348818  0.82439275    -0.71300
O944        O  0.79128000  0.33348437  0.67558343    -0.62600
O945        O  0.79131697  0.38317120  0.74998359    -0.75100
O946        O  0.79128672  0.28379910  0.74999101    -0.73900
Cu947      Cu  0.70580644  0.33348844  0.75000044     1.04600
Cu948      Cu  0.79419874  0.33348585  0.74998684     1.04300
C949        C  0.75000374  0.26816742  0.74999708     0.92400
C950        C  0.74999874  0.39870959  0.74999497     0.91600
C951        C  0.74999203  0.33348426  0.65217774     0.83700
C952        C  0.75002044  0.33349000  0.84780883     0.90000
O953        O  0.54129394  0.16651867  0.57441334    -0.73800
O954        O  0.54128909  0.16652528  0.92559887    -0.74800
O955        O  0.54127329  0.21621279  0.00000396    -0.63400
O956        O  0.54133469  0.11684069  0.50001039    -0.71800
O957        O  0.95869689  0.11684363  0.50001008    -0.71300
O958        O  0.95870769  0.21621051  0.00000401    -0.62600
O959        O  0.95871689  0.16652341  0.92560118    -0.75100
O960        O  0.95872144  0.16652293  0.57441023    -0.73900
Cu961      Cu  0.54420100  0.16652757  0.00000747     1.04600
Cu962      Cu  0.95581379  0.16652402  0.50000746     1.04300
C963        C  0.00000635  0.16652044  0.59782089     0.92400
C964        C  0.00000194  0.16652283  0.90218987     0.91600
C965        C  0.00000725  0.23183956  0.50000219     0.83700
C966        C  0.00001917  0.10131010  0.00001000     0.90000
O967        O  0.95870929  0.21620959  0.75000297    -0.73800
O968        O  0.95868028  0.11684502  0.74999962    -0.74800
O969        O  0.95871159  0.16651869  0.82441100    -0.63400
O970        O  0.95871486  0.16652474  0.67559649    -0.71800
O971        O  0.54128746  0.16652127  0.67559923    -0.71300
O972        O  0.54128374  0.16652666  0.82440831    -0.62600
O973        O  0.54131849  0.11684586  0.75000690    -0.75100
O974        O  0.54127456  0.21621061  0.74999308    -0.73900
Cu975      Cu  0.95580012  0.16652403  0.75000284     1.04600
Cu976      Cu  0.54419354  0.16652573  0.75000215     1.04300
C977        C  0.99999040  0.23184337  0.74999494     0.92400
C978        C  0.00000071  0.10131087  0.75000141     0.91600
C979        C  0.99999875  0.16652189  0.84781975     0.83700
C980        C  0.00000243  0.16652162  0.65218875     0.90000
O981        O  0.70871872  0.16652944  0.57441162    -0.73800
O982        O  0.70869535  0.16655370  0.92560090    -0.74800
O983        O  0.70866453  0.11685564  0.00000936    -0.63400
O984        O  0.70873335  0.21621844  0.50000368    -0.71800
O985        O  0.79129892  0.21621888  0.50000381    -0.71300
O986        O  0.79129963  0.11684969  0.00001030    -0.62600
O987        O  0.79126752  0.16653768  0.92560191    -0.75100
O988        O  0.79129116  0.16653304  0.57441441    -0.73900
Cu989      Cu  0.70578749  0.16655133  0.00000695     1.04600
Cu990      Cu  0.79420403  0.16653536  0.50000737     1.04300
C991        C  0.75000402  0.16652998  0.59782262     0.92400
C992        C  0.74998159  0.16654603  0.90219173     0.91600
C993        C  0.75000199  0.10132781  0.50000965     0.83700
C994        C  0.75000309  0.23186352  0.00000221     0.90000
O995        O  0.79130694  0.11686062  0.75001646    -0.73800
O996        O  0.79128235  0.21622396  0.75000446    -0.74800
O997        O  0.79127159  0.16654063  0.82441631    -0.63400
O998        O  0.79128481  0.16653337  0.67560464    -0.71800
O999        O  0.70871241  0.16653674  0.67559766    -0.71300
O1000       O  0.70869922  0.16654884  0.82440975    -0.62600
O1001       O  0.70871684  0.21622992  0.74999290    -0.75100
O1002       O  0.70866865  0.11686553  0.75001018    -0.73900
Cu1003     Cu  0.79418940  0.16653886  0.75001119     1.04600
Cu1004     Cu  0.70579580  0.16654504  0.75000261     1.04300
C1005       C  0.74998698  0.10132875  0.75001029     0.92400
C1006       C  0.75000104  0.23186013  0.74999777     0.91600
C1007       C  0.74998369  0.16654533  0.84782268     0.83700
C1008       C  0.75000047  0.16653213  0.65219157     0.90000
O1009       O  0.57440878  0.50001594  0.45879179    -0.73800
O1010       O  0.92558542  0.50001074  0.45879008    -0.74800
O1011       O  0.99999284  0.54968824  0.45877452    -0.63400
O1012       O  0.50000745  0.95032302  0.45876355    -0.71800
O1013       O  0.50001415  0.95032040  0.04122504    -0.71300
O1014       O  0.00002015  0.54967145  0.04123635    -0.62600
O1015       O  0.92559871  0.00000047  0.04120783    -0.75100
O1016       O  0.57442206  0.99999701  0.04120988    -0.73900
Cu1017     Cu  0.99999649  0.50000895  0.45587037     1.04600
Cu1018     Cu  0.50001331  0.00000076  0.04412945     1.04300
C1019       C  0.59783134  0.49998026  0.00000086     0.92400
C1020       C  0.90219284  0.99999750  0.99999900     0.91600
C1021       C  0.50001893  0.56520974  0.00000729     0.83700
C1022       C  0.00001447  0.93478916  0.99999267     0.90000
O1023       O  0.49999561  0.54968648  0.29121464    -0.73800
O1024       O  0.49999267  0.95032356  0.29124587    -0.74800
O1025       O  0.57441301  0.00000396  0.29122006    -0.63400
O1026       O  0.92559621  0.50000608  0.29119686    -0.71800
O1027       O  0.92559217  0.50001277  0.20877896    -0.71300
O1028       O  0.57442050  0.50001648  0.20878111    -0.62600
O1029       O  0.99999272  0.95032680  0.20878487    -0.75100
O1030       O  0.99999997  0.54969007  0.20875253    -0.73900
Cu1031     Cu  0.49999882  0.00000722  0.29414456     1.04600
Cu1032     Cu  0.00000722  0.50001152  0.20585406     1.04300
C1033       C  0.49999353  0.56522179  0.24998366     0.92400
C1034       C  0.99999153  0.93478973  0.25001515     0.91600
C1035       C  0.59782180  0.50001788  0.24999272     0.83700
C1036       C  0.90218906  0.50001288  0.24998986     0.90000
O1037       O  0.74999161  0.95029337  0.04122466    -0.73800
O1038       O  0.74999425  0.54966200  0.04123633    -0.74800
O1039       O  0.67560158  0.49997382  0.04120995    -0.63400
O1040       O  0.82442504  0.49998703  0.04120813    -0.71800
O1041       O  0.82440937  0.50003038  0.45879022    -0.71300
O1042       O  0.67558625  0.50005401  0.45879194    -0.62600
O1043       O  0.75001858  0.54973496  0.45877568    -0.75100
O1044       O  0.75001759  0.95036844  0.45876269    -0.73900
Cu1045     Cu  0.75001189  0.49998184  0.04413010     1.04600
Cu1046     Cu  0.75001032  0.00004245  0.45586923     1.04300
C1047       C  0.75001938  0.93483390  0.49999297     0.92400
C1048       C  0.75002617  0.56526966  0.50000694     0.91600
C1049       C  0.65218142  0.50004443  0.50000088     0.83700
C1050       C  0.84781422  0.50002215  0.49999904     0.90000
O1051       O  0.67559431  0.50003198  0.20879220    -0.73800
O1052       O  0.82441268  0.50002924  0.20878991    -0.74800
O1053       O  0.75001188  0.95035340  0.20874716    -0.63400
O1054       O  0.74999667  0.54971417  0.20879538    -0.71800
O1055       O  0.74999838  0.54970111  0.29125681    -0.71300
O1056       O  0.75001144  0.95034033  0.29120882    -0.62600
O1057       O  0.82441873  0.50001747  0.29120770    -0.75100
O1058       O  0.67559045  0.50001990  0.29121035    -0.73900
Cu1059     Cu  0.75000161  0.50003141  0.20587546     1.04600
Cu1060     Cu  0.75000345  0.50001853  0.29413420     1.04300
C1061       C  0.65218805  0.50002438  0.24999935     0.92400
C1062       C  0.84782098  0.50002056  0.24999642     0.91600
C1063       C  0.75001167  0.93481238  0.24997291     0.83700
C1064       C  0.74999300  0.56524236  0.25003097     0.90000
O1065       O  0.54131791  0.88314974  0.49998940    -0.73800
O1066       O  0.54129415  0.78378022  0.49999576    -0.74800
O1067       O  0.54128368  0.83346282  0.42558665    -0.63400
O1068       O  0.54128357  0.83347564  0.07440100    -0.71800
O1069       O  0.95871149  0.83348759  0.07439910    -0.71300
O1070       O  0.95871122  0.83347165  0.42558992    -0.62600
O1071       O  0.95870686  0.78379567  0.99999578    -0.75100
O1072       O  0.95868738  0.88316643  0.99998980    -0.73900
Cu1073     Cu  0.54419847  0.83346436  0.49999226     1.04600
Cu1074     Cu  0.95580160  0.83348485  0.99999241     1.04300
C1075       C  0.00000105  0.89868984  0.49998964     0.92400
C1076       C  0.99998684  0.76815711  0.99999763     0.91600
C1077       C  0.99999603  0.83346562  0.40217923     0.83700
C1078       C  0.99999682  0.83348388  0.09781031     0.90000
O1079       O  0.95870528  0.83346709  0.32440253    -0.73800
O1080       O  0.95870633  0.83348811  0.17558838    -0.74800
O1081       O  0.95870722  0.78378903  0.24998605    -0.62200
O1082       O  0.95867008  0.88316086  0.25000887    -0.71800
O1083       O  0.54130679  0.88315552  0.25001174    -0.71300
O1084       O  0.54127262  0.78378404  0.24999437    -0.62600
O1085       O  0.54127837  0.83347862  0.17559315    -0.75100
O1086       O  0.54127758  0.83346152  0.32440223    -0.73900
Cu1087     Cu  0.95579352  0.83347645  0.24999575     1.04600
Cu1088     Cu  0.54418593  0.83346981  0.25000012     1.04300
C1089       C  0.99999217  0.83346380  0.34781150     0.92400
C1090       C  0.99999376  0.83348498  0.15218057     0.91600
C1091       C  0.99998912  0.76815304  0.24999425     0.83700
C1092       C  0.99998933  0.89869501  0.25001354     0.90000
O1093       O  0.70869814  0.78385817  0.49999649    -0.73800
O1094       O  0.70869368  0.88321864  0.49999012    -0.74800
O1095       O  0.70871516  0.83354319  0.42558386    -0.63400
O1096       O  0.70870541  0.83344509  0.07439767    -0.71800
O1097       O  0.79127808  0.83344961  0.07439599    -0.71300
O1098       O  0.79128731  0.83353485  0.42558625    -0.62600
O1099       O  0.79129543  0.88312859  0.99999019    -0.75100
O1100       O  0.79129285  0.78376192  0.99999658    -0.73900
Cu1101     Cu  0.70580156  0.83354268  0.49999302     1.04600
Cu1102     Cu  0.79418838  0.83344653  0.99999313     1.04300
C1103       C  0.74997915  0.76822202  0.49999827     0.92400
C1104       C  0.74997638  0.89866519  0.99999014     0.91600
C1105       C  0.75000235  0.83353703  0.40217476     0.83700
C1106       C  0.74999242  0.83345425  0.09780571     0.90000
O1107       O  0.70872368  0.78381586  0.25001347    -0.73800
O1108       O  0.70868906  0.88318612  0.24996041    -0.74800
O1109       O  0.70871083  0.83348171  0.17558444    -0.63400
O1110       O  0.70871949  0.83352326  0.32439386    -0.71800
O1111       O  0.79129150  0.83351523  0.32439419    -0.71300
O1112       O  0.79128331  0.83348422  0.17558010    -0.62600
O1113       O  0.79132628  0.88318154  0.24996537    -0.75100
O1114       O  0.79128899  0.78381321  0.25000289    -0.73900
Cu1115     Cu  0.70580797  0.83350240  0.24998816     1.04600
Cu1116     Cu  0.79420063  0.83349905  0.24998528     1.04300
C1117       C  0.75000656  0.76818107  0.25000682     0.92400
C1118       C  0.75000883  0.89871976  0.24996261     0.91600
C1119       C  0.74999552  0.83347375  0.15217325     0.83700
C1120       C  0.75000492  0.83352627  0.34780427     0.90000
O1121       O  0.54127502  0.66652717  0.07441176    -0.73800
O1122       O  0.54129519  0.66651380  0.42559720    -0.74800
O1123       O  0.54129342  0.71620509  0.50000408    -0.63400
O1124       O  0.54132759  0.61684254  0.00001041    -0.71800
O1125       O  0.95869076  0.61683913  0.00001004    -0.71300
O1126       O  0.95872799  0.71621175  0.50000405    -0.62600
O1127       O  0.95872327  0.66652511  0.42560043    -0.75100
O1128       O  0.95870233  0.66652662  0.07440949    -0.73900
Cu1129     Cu  0.54420571  0.66651759  0.50000749     1.04600
Cu1130     Cu  0.95579670  0.66652555  0.00000741     1.04300
C1131       C  0.99998741  0.66652937  0.09781939     0.92400
C1132       C  0.00000802  0.66651587  0.40218833     0.91600
C1133       C  0.99998376  0.73184807  0.00000215     0.83700
C1134       C  0.00000099  0.60130877  0.50000999     0.90000
O1135       O  0.95870508  0.71621423  0.25001340    -0.73800
O1136       O  0.95867130  0.61684826  0.24999718    -0.74800
O1137       O  0.95871307  0.66651921  0.32441282    -0.63400
O1138       O  0.95870041  0.66653603  0.17559834    -0.71800
O1139       O  0.54127311  0.66653361  0.17559253    -0.71300
O1140       O  0.54128498  0.66650973  0.32440139    -0.62600
O1141       O  0.54130922  0.61684528  0.24997570    -0.75100
O1142       O  0.54127066  0.71621005  0.25000383    -0.73900
Cu1143     Cu  0.95579341  0.66652929  0.25000617     1.04600
Cu1144     Cu  0.54418680  0.66652406  0.24999302     1.04300
C1145       C  0.99998812  0.73184549  0.25000498     0.92400
C1146       C  0.99999055  0.60131197  0.24998422     0.91600
C1147       C  0.00000241  0.66651283  0.34781748     0.83700
C1148       C  0.99998597  0.66653397  0.15218657     0.90000
O1149       O  0.70870640  0.66651424  0.07441580    -0.73800
O1150       O  0.70871717  0.66659006  0.42560456    -0.74800
O1151       O  0.70870285  0.61690437  0.50000935    -0.63400
O1152       O  0.70872647  0.71619473  0.00000362    -0.71800
O1153       O  0.79129244  0.71618660  0.00000374    -0.71300
O1154       O  0.79133857  0.61691057  0.50001016    -0.62600
O1155       O  0.79128974  0.66659998  0.42560398    -0.75100
O1156       O  0.79127839  0.66650416  0.07441595    -0.73900
Cu1157     Cu  0.70580694  0.66659152  0.50000681     1.04600
Cu1158     Cu  0.79419090  0.66650259  0.00000732     1.04300
C1159       C  0.74999243  0.66651383  0.09782647     0.92400
C1160       C  0.75000321  0.66659033  0.40219558     0.91600
C1161       C  0.74998313  0.60129041  0.00000960     0.83700
C1162       C  0.74998101  0.73191563  0.50000218     0.90000
O1163       O  0.79130953  0.61686910  0.25003483    -0.73800
O1164       O  0.79128760  0.71623734  0.24999597    -0.74800
O1165       O  0.79128688  0.66656559  0.32441791    -0.63400
O1166       O  0.79128019  0.66653405  0.17560631    -0.71800
O1167       O  0.70870825  0.66654020  0.17560985    -0.71300
O1168       O  0.70871426  0.66657206  0.32442178    -0.62600
O1169       O  0.70872226  0.71624281  0.25000124    -0.75100
O1170       O  0.70867227  0.61687338  0.25004136    -0.73900
Cu1171     Cu  0.79419383  0.66655081  0.25001350     1.04600
Cu1172     Cu  0.70580094  0.66655735  0.25001870     1.04300
C1173       C  0.74999061  0.60133527  0.25003976     0.92400
C1174       C  0.75000602  0.73187350  0.25000119     0.91600
C1175       C  0.75000164  0.66657589  0.34782863     0.83700
C1176       C  0.74999320  0.66652896  0.15219757     0.90000
O1177       O  0.57442730  0.49998713  0.95879161    -0.73800
O1178       O  0.92560403  0.49999715  0.95879027    -0.74800
O1179       O  0.00002049  0.54967748  0.95877524    -0.63400
O1180       O  0.50001485  0.95032638  0.95876331    -0.71800
O1181       O  0.50000691  0.95031699  0.54122455    -0.71300
O1182       O  0.99999225  0.54968227  0.54123674    -0.62600
O1183       O  0.92559856  0.00000888  0.54120816    -0.75100
O1184       O  0.57442196  0.00000119  0.54120966    -0.73900
Cu1185     Cu  0.00001708  0.49999437  0.95587041     1.04600
Cu1186     Cu  0.50001024  0.00000082  0.54412948     1.04300
C1187       C  0.59781365  0.50002315  0.50000088     0.92400
C1188       C  0.90219400  0.00001935  0.49999897     0.91600
C1189       C  0.49999394  0.56521873  0.50000713     0.83700
C1190       C  0.00000518  0.93478454  0.49999251     0.90000
O1191       O  0.49999936  0.54968401  0.79125926    -0.73800
O1192       O  0.49999212  0.95032065  0.79120302    -0.74800
O1193       O  0.57440819  0.00000173  0.79119950    -0.63400
O1194       O  0.92559177  0.50000641  0.79121914    -0.71800
O1195       O  0.92559646  0.50001246  0.70880124    -0.71300
O1196       O  0.57441465  0.50001789  0.70880253    -0.62600
O1197       O  0.99999333  0.95032962  0.70874202    -0.75100
O1198       O  0.99999631  0.54969255  0.70879708    -0.73900
Cu1199     Cu  0.49999778  0.00000427  0.79411441     1.04600
Cu1200     Cu  0.00000580  0.50001272  0.70588665     1.04300
C1201       C  0.49999341  0.56522180  0.75003114     0.92400
C1202       C  0.99999156  0.93478967  0.74996967     0.91600
C1203       C  0.59782184  0.50001789  0.75000920     0.83700
C1204       C  0.90218901  0.50001289  0.75000793     0.90000
O1205       O  0.75001836  0.95036265  0.54122609    -0.73800
O1206       O  0.75001941  0.54972904  0.54123529    -0.74800
O1207       O  0.67558679  0.50004787  0.54120956    -0.63400
O1208       O  0.82440990  0.50002424  0.54120805    -0.71800
O1209       O  0.82442449  0.49999313  0.95879017    -0.71300
O1210       O  0.67560103  0.49997988  0.95879153    -0.62600
O1211       O  0.74999317  0.54966787  0.95877436    -0.75100
O1212       O  0.74999091  0.95029930  0.95876403    -0.73900
Cu1213     Cu  0.74999910  0.50003798  0.54412837     1.04600
Cu1214     Cu  0.75000052  0.99998602  0.95587142     1.04300
C1215       C  0.74998143  0.93476041  0.99999288     0.92400
C1216       C  0.74998612  0.56519891  0.00000678     0.91600
C1217       C  0.65219715  0.49997628  0.00000089     0.83700
C1218       C  0.84783010  0.49999085  0.99999904     0.90000
O1219       O  0.67559001  0.50002601  0.70879151    -0.73800
O1220       O  0.82441819  0.50002335  0.70879046    -0.74800
O1221       O  0.75001056  0.95034607  0.70878056    -0.63400
O1222       O  0.74999782  0.54970685  0.70875409    -0.71800
O1223       O  0.74999740  0.54970830  0.79121552    -0.71300
O1224       O  0.75001303  0.95034768  0.79124223    -0.62600
O1225       O  0.82441331  0.50002330  0.79120824    -0.75100
O1226       O  0.67559493  0.50002581  0.79120966    -0.73900
Cu1227     Cu  0.75000279  0.50002486  0.70586595     1.04600
Cu1228     Cu  0.75000256  0.50002494  0.79412466     1.04300
C1229       C  0.65218810  0.50002438  0.75000283     0.92400
C1230       C  0.84782097  0.50002056  0.75000160     0.91600
C1231       C  0.75001177  0.93481239  0.75001372     0.83700
C1232       C  0.74999301  0.56524230  0.74998277     0.90000
O1233       O  0.54132484  0.88315647  0.99998949    -0.73800
O1234       O  0.54127177  0.78378672  0.99999583    -0.74800
O1235       O  0.54128309  0.83347566  0.92558364    -0.63400
O1236       O  0.54128424  0.83346281  0.57439788    -0.71800
O1237       O  0.95871176  0.83347141  0.57439464    -0.71300
O1238       O  0.95871091  0.83348785  0.92558564    -0.62600
O1239       O  0.95872856  0.78378422  0.49999570    -0.75100
O1240       O  0.95868110  0.88315629  0.49998971    -0.73900
Cu1241     Cu  0.54419423  0.83347330  0.99999233     1.04600
Cu1242     Cu  0.95580569  0.83347152  0.49999231     1.04300
C1243       C  0.00000899  0.89869713  0.99998978     0.92400
C1244       C  0.00001159  0.76814894  0.49999760     0.91600
C1245       C  0.99999615  0.83348402  0.90217440     0.83700
C1246       C  0.99999655  0.83346550  0.59780531     0.90000
O1247       O  0.95870576  0.83348814  0.82439603    -0.73800
O1248       O  0.95870574  0.83346710  0.67558174    -0.74800
O1249       O  0.95870719  0.78378903  0.75000537    -0.62200
O1250       O  0.95867013  0.88316084  0.74996980    -0.71800
O1251       O  0.54130681  0.88315543  0.74996725    -0.71300
O1252       O  0.54127251  0.78378403  0.74999745    -0.62600
O1253       O  0.54127828  0.83346135  0.67558241    -0.75100
O1254       O  0.54127769  0.83347866  0.82439165    -0.73900
Cu1255     Cu  0.95579344  0.83347646  0.74998853     1.04600
Cu1256     Cu  0.54418587  0.83346977  0.74998458     1.04300
C1257       C  0.99999317  0.83348507  0.84780408     0.92400
C1258       C  0.99999274  0.83346367  0.65217298     0.91600
C1259       C  0.99998920  0.76815304  0.75000106     0.83700
C1260       C  0.99998937  0.89869496  0.74996544     0.90000
O1261       O  0.70872682  0.78375930  0.99999657    -0.73800
O1262       O  0.70865855  0.88312811  0.99999018    -0.74800
O1263       O  0.70870532  0.83344504  0.92558847    -0.63400
O1264       O  0.70871535  0.83354340  0.57440217    -0.71800
O1265       O  0.79128751  0.83353506  0.57440000    -0.71300
O1266       O  0.79127798  0.83344956  0.92559032    -0.62600
O1267       O  0.79133254  0.88321000  0.49999038    -0.75100
O1268       O  0.79126391  0.78385132  0.49999674    -0.73900
Cu1269     Cu  0.70579464  0.83344213  0.99999308     1.04600
Cu1270     Cu  0.79419523  0.83353329  0.49999313     1.04300
C1271       C  0.75001214  0.76812823  0.99999823     0.92400
C1272       C  0.75001562  0.89874751  0.49999034     0.91600
C1273       C  0.74999242  0.83345404  0.90218048     0.83700
C1274       C  0.75000261  0.83353735  0.59781138     0.90000
O1275       O  0.70872373  0.78381587  0.74997896    -0.73800
O1276       O  0.70868907  0.88318613  0.75002059    -0.74800
O1277       O  0.70871953  0.83352358  0.67559198    -0.63400
O1278       O  0.70871081  0.83348128  0.82440152    -0.71800
O1279       O  0.79128332  0.83348379  0.82440622    -0.71300
O1280       O  0.79129157  0.83351555  0.67559217    -0.62600
O1281       O  0.79132634  0.88318154  0.75001613    -0.75100
O1282       O  0.79128906  0.78381319  0.74999000    -0.73900
Cu1283     Cu  0.70580791  0.83350238  0.74999771     1.04600
Cu1284     Cu  0.79420080  0.83349904  0.75000116     1.04300
C1285       C  0.75000671  0.76818107  0.74998922     0.92400
C1286       C  0.75000889  0.89871976  0.75001880     0.91600
C1287       C  0.75000500  0.83352661  0.65218184     0.83700
C1288       C  0.74999545  0.83347333  0.84781290     0.90000
O1289       O  0.54129498  0.66651356  0.57441783    -0.73800
O1290       O  0.54127514  0.66652722  0.92560356    -0.74800
O1291       O  0.54126671  0.71621339  0.00000407    -0.63400
O1292       O  0.54132312  0.61683843  0.50001010    -0.71800
O1293       O  0.95868512  0.61684848  0.50001013    -0.71300
O1294       O  0.95870164  0.71621463  0.00000398    -0.62600
O1295       O  0.95870245  0.66652671  0.92560542    -0.75100
O1296       O  0.95872306  0.66652505  0.57441447    -0.73900
Cu1297     Cu  0.54418991  0.66652694  0.00000769     1.04600
Cu1298     Cu  0.95581291  0.66652819  0.50000746     1.04300
C1299       C  0.00000783  0.66651569  0.59782666     0.92400
C1300       C  0.99998765  0.66652950  0.90219574     0.91600
C1301       C  0.00001156  0.73184169  0.50000219     0.83700
C1302       C  0.00001232  0.60130412  0.00001012     0.90000
O1303       O  0.95870520  0.71621421  0.74999433    -0.73800
O1304       O  0.95867121  0.61684824  0.75002364    -0.74800
O1305       O  0.95870065  0.66653613  0.82441665    -0.63400
O1306       O  0.95871282  0.66651898  0.67560211    -0.71800
O1307       O  0.54128495  0.66650971  0.67561363    -0.71300
O1308       O  0.54127320  0.66653366  0.82442260    -0.62600
O1309       O  0.54130911  0.61684529  0.75004504    -0.75100
O1310       O  0.54127055  0.71621006  0.75000420    -0.73900
Cu1311     Cu  0.95579335  0.66652928  0.75000880     1.04600
Cu1312     Cu  0.54418671  0.66652407  0.75002203     1.04300
C1313       C  0.99998823  0.73184549  0.74999926     0.92400
C1314       C  0.99999050  0.60131198  0.75003641     0.91600
C1315       C  0.99998618  0.66653413  0.84782854     0.83700
C1316       C  0.00000214  0.66651263  0.65219752     0.90000
O1317       O  0.70871634  0.66658983  0.57440924    -0.73800
O1318       O  0.70870720  0.66651451  0.92559781    -0.74800
O1319       O  0.70866520  0.61682890  0.00000926    -0.63400
O1320       O  0.70870167  0.71627957  0.50000369    -0.71800
O1321       O  0.79126721  0.71628555  0.50000384    -0.71300
O1322       O  0.79130275  0.61682279  0.00001011    -0.62600
O1323       O  0.79127919  0.66650396  0.92559859    -0.75100
O1324       O  0.79128891  0.66660002  0.57441058    -0.73900
Cu1325     Cu  0.70579773  0.66651261  0.00000672     1.04600
Cu1326     Cu  0.79419947  0.66660108  0.50000738     1.04300
C1327       C  0.75000220  0.66659035  0.59781857     0.92400
C1328       C  0.74999321  0.66651378  0.90218763     0.91600
C1329       C  0.75002401  0.60136881  0.50000971     0.83700
C1330       C  0.75001176  0.73182301  0.00000212     0.90000
O1331       O  0.79130950  0.61686909  0.74998426    -0.73800
O1332       O  0.79128764  0.71623733  0.75001120    -0.74800
O1333       O  0.79128099  0.66653383  0.82440774    -0.63400
O1334       O  0.79128607  0.66656582  0.67559605    -0.71800
O1335       O  0.70871344  0.66657222  0.67559240    -0.71300
O1336       O  0.70870906  0.66653992  0.82440434    -0.62600
O1337       O  0.70872230  0.71624277  0.75000628    -0.75100
O1338       O  0.70867226  0.61687332  0.74997808    -0.73900
Cu1339     Cu  0.79419376  0.66655081  0.75000035     1.04600
Cu1340     Cu  0.70580088  0.66655723  0.74999550     1.04300
C1341       C  0.74999062  0.60133523  0.74997934     0.92400
C1342       C  0.75000596  0.73187348  0.75000287     0.91600
C1343       C  0.74999433  0.66652878  0.84781655     0.83700
C1344       C  0.75000069  0.66657606  0.65218547     0.90000
loop_ 
_geom_bond_atom_site_label_1 
_geom_bond_atom_site_label_2 
_geom_bond_distance 
_geom_bond_site_symmetry_2 
_ccdc_geom_bond_type 
O1         Cu681   2.004       .  S
O1          C179   1.277       .  A
O2           Cu9   2.004       .  S
O2          C516   1.277       .  A
O3           Cu9   2.008       .  S
O3          C853   1.277       .  A
O4        Cu1017   2.009       .  S
O4          C854   1.277       .  A
O5          Cu10   2.008       .  S
O5          C686   1.277   1_554  A
O6        Cu1018   2.009       .  S
O6          C685   1.277       .  A
O7         Cu682   2.004       .  S
O7           C12   1.277   1_554  A
O8          Cu10   2.004       .  S
O8          C347   1.277       .  A
Cu9         O673   2.004       .  S
Cu9        O1012   2.009   1_545  S
Cu9       Cu1186   2.380       .  S
Cu10       O1014   2.009       .  S
Cu10        O679   2.004   1_455  S
Cu10      Cu1185   2.380   1_554  S
C11         O169   1.277   1_564  A
C11         O344   1.277       .  A
C11         C209   1.463       .  S
C12         O506   1.277       .  A
C12         C546   1.463       .  S
C13         O843   1.277   1_554  A
C13         O678   1.277       .  A
C13         C966   1.458       .  S
C14         O844   1.277       .  A
C14         O677   1.277   1_556  A
C14         C235   1.458       .  S
O15        Cu359   2.008   1_455  S
O15          C25   1.277       .  A
O16         Cu23   2.009       .  S
O16         C698   1.277       .  A
O17         Cu23   2.004       .  S
O17         C363   1.277       .  A
O18       Cu1031   2.004       .  S
O18          C28   1.277       .  A
O19         Cu24   2.004       .  S
O19          C28   1.277       .  A
O20        Cu696   2.004   1_455  S
O20          C27   1.277       .  A
O21        Cu360   2.009       .  S
O21          C26   1.277       .  A
O22         Cu24   2.008       .  S
O22         C697   1.277       .  A
Cu23        O351   2.008   1_455  S
Cu23       O1026   2.004   1_455  S
Cu23      Cu1032   2.380       .  S
Cu24        O692   2.004       .  S
Cu24        O357   2.009   1_545  S
Cu24      Cu1031   2.380       .  S
C25         O694   1.277       .  A
C25         C810   1.458       .  S
C26         O688   1.277       .  A
C26          C84   1.458       .  S
C27         O353   1.277       .  A
C27          C53   1.463       .  S
C28          C54   1.463       .  S
O29        Cu373   2.008       .  S
O29         C207   1.277   1_554  A
O30         Cu37   2.009   1_545  S
O30         C208   1.277       .  A
O31         Cu37   2.003       .  S
O31         C209   1.277       .  A
O32         Cu37   2.004       .  S
O32         C210   1.277   1_554  A
O33        Cu374   2.004       .  S
O33          C42   1.277       .  A
O34        Cu374   2.004       .  S
O34          C41   1.277       .  A
O35        Cu374   2.008       .  S
O35          C40   1.277       .  A
O36         Cu38   2.009       .  S
O36          C39   1.277       .  A
Cu37        O365   2.009       .  S
Cu37       Cu542   2.380   1_554  S
Cu38        O369   2.004       .  S
Cu38        O370   2.004       .  S
Cu38        O371   2.009       .  S
Cu38       Cu541   2.380       .  S
C39         O197   1.277       .  A
C39         C264   1.458       .  S
C40         O198   1.277       .  A
C40         C321   1.458       .  S
C41         O199   1.277       .  A
C41         C179   1.463       .  S
C42         O200   1.277       .  A
C42         C516   1.463       .  S
O43         Cu51   2.004       .  S
O43          C53   1.277       .  A
O44         Cu51   2.004       .  S
O44          C54   1.277       .  A
O45        Cu387   2.009       .  S
O45          C55   1.277       .  A
O46         Cu51   2.008       .  S
O46          C56   1.277       .  A
O47         Cu52   2.008       .  S
O47          C56   1.277       .  A
O48        Cu388   2.009       .  S
O48          C55   1.277       .  A
O49         Cu52   2.004       .  S
O49          C54   1.277       .  A
O50         Cu52   2.004       .  S
O50          C53   1.277       .  A
Cu51        O381   2.008   1_545  S
Cu51        Cu52   2.380       .  S
Cu52        O384   2.009   1_545  S
C55         C110   1.458       .  S
C56         C165   1.458       .  S
O57         Cu65   2.009       .  S
O57         C739   1.277   1_455  A
O58         Cu65   2.009       .  S
O58         C908   1.278       .  A
O59         Cu65   2.008       .  S
O59         C741   1.278       .  A
O60        Cu233   2.008   1_554  S
O60         C742   1.278   1_455  A
O61         Cu66   2.008   1_554  S
O61          C70   1.278       .  A
O62        Cu234   2.008       .  S
O62          C69   1.278       .  A
O63         Cu66   2.009       .  S
O63          C68   1.278       .  A
O64         Cu66   2.009       .  S
O64         C235   1.277       .  A
Cu65        O228   2.008       .  S
Cu65       Cu906   2.378   1_455  S
Cu66        O230   2.008       .  S
Cu66       Cu905   2.378       .  S
C67         O729   1.277       .  A
C67         O232   1.277       .  A
C67         C182   1.458       .  S
C68         O898   1.278       .  A
C68         C125   1.467   1_556  S
C69         O731   1.278       .  A
C69          C81   1.466       .  S
C70         O732   1.278       .  A
C70          C82   1.466       .  S
O71         Cu79   2.008       .  S
O71          C81   1.278       .  A
O72         Cu79   2.008       .  S
O72          C82   1.278       .  A
O73         Cu79   2.009       .  S
O73          C83   1.278       .  A
O74         Cu79   2.009       .  S
O74          C84   1.277       .  A
O75         Cu80   2.009       .  S
O75         C756   1.277       .  A
O76         Cu80   2.009       .  S
O76         C755   1.278   1_455  A
O77         Cu80   2.008       .  S
O77         C754   1.278   1_455  A
O78         Cu80   2.008       .  S
O78         C753   1.278   1_455  A
Cu79       Cu752   2.378       .  S
Cu80       Cu751   2.378   1_455  S
C81         O750   1.278       .  A
C82         O749   1.278       .  A
C83         O748   1.278       .  A
C83         C137   1.467       .  S
C84         O747   1.277       .  A
O85         Cu93   2.009       .  S
O85          C95   1.278       .  A
O86         Cu93   2.009       .  S
O86         C264   1.277       .  A
O87         Cu93   2.008       .  S
O87          C97   1.278       .  A
O88        Cu261   2.008   1_554  S
O88          C98   1.278       .  A
O89         Cu94   2.008   1_554  S
O89          C98   1.278       .  A
O90        Cu262   2.008       .  S
O90          C97   1.278       .  A
O91         Cu94   2.008       .  S
O91          C96   1.277       .  A
O92         Cu94   2.009       .  S
O92         C263   1.278       .  A
Cu93        O256   2.008       .  S
Cu93       Cu262   2.378       .  S
Cu94        O258   2.008       .  S
Cu94       Cu261   2.378       .  S
C95         O260   1.278       .  A
C95         C154   1.467       .  S
C96         O254   1.277       .  A
C96         C207   1.458       .  S
C97         C112   1.466       .  S
C98         C111   1.466       .  S
O99        Cu107   2.009       .  S
O99         C109   1.278       .  A
O100       Cu107   2.009       .  S
O100        C110   1.277       .  A
O101       Cu107   2.008       .  S
O101        C111   1.278       .  A
O102       Cu107   2.008       .  S
O102        C112   1.278       .  A
O103       Cu108   2.008       .  S
O103        C112   1.278       .  A
O104       Cu108   2.008       .  S
O104        C111   1.278       .  A
O105       Cu108   2.009       .  S
O105        C110   1.277       .  A
O106       Cu108   2.009       .  S
O106        C109   1.278       .  A
Cu107      Cu108   2.378       .  S
C109        C166   1.467       .  S
O113       Cu289   2.008       .  S
O113        C795   1.278       .  A
O114       Cu121   2.008       .  S
O114        C796   1.278       .  A
O115       Cu121   2.009       .  S
O115        C965   1.278       .  A
O116       Cu289   2.008       .  S
O116        C966   1.277       .  A
O117       Cu122   2.008       .  S
O117        C294   1.277       .  A
O118       Cu290   2.009       .  S
O118        C293   1.278       .  A
O119       Cu290   2.008       .  S
O119        C124   1.278       .  A
O120       Cu122   2.008       .  S
O120        C123   1.278       .  A
Cu121       O281   2.008       .  S
Cu121       O284   2.008       .  S
Cu121      Cu962   2.378   1_455  S
Cu122       O286   2.009       .  S
Cu122       O287   2.008   1_554  S
Cu122      Cu961   2.378       .  S
C123        O785   1.278       .  A
C123        C140   1.466       .  S
C124        O786   1.278       .  A
C124        C139   1.466       .  S
C125        O955   1.278       .  A
C125        O286   1.278       .  A
C126        O956   1.277       .  A
C126        O285   1.277       .  A
C126        C853   1.458       .  S
O127       Cu135   2.009       .  S
O127        C137   1.278       .  A
O128       Cu135   2.008       .  S
O128        C138   1.277       .  A
O129       Cu135   2.008       .  S
O129        C139   1.278       .  A
O130       Cu135   2.008       .  S
O130        C140   1.278       .  A
O131       Cu136   2.008       .  S
O131        C812   1.278   1_455  A
O132       Cu136   2.008       .  S
O132        C811   1.278       .  A
O133       Cu136   2.008       .  S
O133        C810   1.277       .  A
O134       Cu136   2.009       .  S
O134        C809   1.278   1_455  A
Cu135      Cu808   2.378       .  S
Cu136      Cu807   2.378   1_455  S
C137        O806   1.278       .  A
C138        O805   1.277       .  A
C138        C697   1.458       .  S
C139        O804   1.278       .  A
C140        O803   1.278       .  A
O141       Cu317   2.008       .  S
O141        C151   1.278       .  A
O142       Cu149   2.008       .  S
O142        C152   1.278       .  A
O143       Cu149   2.008       .  S
O143        C321   1.277       .  A
O144       Cu317   2.009       .  S
O144        C322   1.278       .  A
O145       Cu150   2.009       .  S
O145        C322   1.278       .  A
O146       Cu318   2.008       .  S
O146        C321   1.277       .  A
O147       Cu318   2.008       .  S
O147        C152   1.278       .  A
O148       Cu150   2.008       .  S
O148        C151   1.278       .  A
Cu149       O309   2.008       .  S
Cu149       O312   2.009       .  S
Cu149      Cu318   2.378       .  S
Cu150       O314   2.009       .  S
Cu150       O315   2.008   1_554  S
Cu150      Cu317   2.378       .  S
C151        C168   1.466       .  S
C152        C167   1.466       .  S
C153        O311   1.277       .  A
C153        O314   1.277       .  A
C153        C208   1.458       .  S
C154        O312   1.278       .  A
C154        O313   1.278       .  A
O155       Cu163   2.008       .  S
O155        C165   1.277       .  A
O156       Cu163   2.009       .  S
O156        C166   1.278       .  A
O157       Cu163   2.008       .  S
O157        C167   1.278       .  A
O158       Cu163   2.008       .  S
O158        C168   1.278       .  A
O159       Cu164   2.008       .  S
O159        C168   1.278       .  A
O160       Cu164   2.008       .  S
O160        C167   1.278       .  A
O161       Cu164   2.009       .  S
O161        C166   1.278       .  A
O162       Cu164   2.008       .  S
O162        C165   1.277       .  A
Cu163      Cu164   2.378       .  S
O169       Cu849   2.004       .  S
O170       Cu177   2.004       .  S
O170        C348   1.277   1_545  A
O171       Cu177   2.008       .  S
O171        C685   1.277   1_556  A
O172      Cu1185   2.008       .  S
O172        C686   1.277       .  A
O173       Cu178   2.009       .  S
O173        C854   1.277       .  A
O174      Cu1186   2.008       .  S
O174        C853   1.277       .  A
O175       Cu850   2.004       .  S
O175        C180   1.277       .  A
O176       Cu178   2.004   1_455  S
O176        C515   1.277       .  A
Cu177       O841   2.004       .  S
Cu177      O1180   2.009   1_545  S
Cu177     Cu1018   2.380   1_556  S
Cu178      O1182   2.008       .  S
Cu178       O847   2.004       .  S
Cu178     Cu1017   2.380       .  S
C179        O512   1.277       .  A
C180        O338   1.277       .  A
C180        C378   1.463       .  S
C181        O675   1.277       .  A
C181        O846   1.277       .  A
C181        C798   1.458       .  S
C182        O676   1.277       .  A
C182        O845   1.277       .  A
O183       Cu527   2.008   1_455  S
O183        C193   1.277       .  A
O184       Cu191   2.009       .  S
O184        C866   1.277       .  A
O185       Cu191   2.004       .  S
O185        C531   1.277       .  A
O186      Cu1199   2.004       .  S
O186        C196   1.277       .  A
O187       Cu192   2.004       .  S
O187        C196   1.277       .  A
O188       Cu864   2.004   1_455  S
O188        C195   1.277       .  A
O189       Cu528   2.009       .  S
O189        C194   1.277       .  A
O190       Cu192   2.008       .  S
O190        C865   1.277       .  A
Cu191       O519   2.008   1_455  S
Cu191      O1194   2.004   1_455  S
Cu191     Cu1200   2.380       .  S
Cu192       O860   2.004       .  S
Cu192       O525   2.009   1_545  S
Cu192     Cu1199   2.380       .  S
C193        O862   1.277       .  A
C193        C978   1.458       .  S
C194        O856   1.277       .  A
C194        C252   1.458       .  S
C195        O521   1.277       .  A
C195        C221   1.463       .  S
C196        C222   1.463       .  S
O197       Cu541   2.009       .  S
O198       Cu205   2.008       .  S
O199       Cu205   2.004       .  S
O200       Cu205   2.004       .  S
O201       Cu542   2.004       .  S
O201        C210   1.277       .  A
O202       Cu542   2.003       .  S
O202        C209   1.277   1_556  A
O203       Cu542   2.009   1_545  S
O203        C208   1.277   1_556  A
O204       Cu206   2.008       .  S
O204        C207   1.277       .  A
Cu205       O533   2.008   1_545  S
Cu205      Cu374   2.380       .  S
Cu206       O537   2.004       .  S
Cu206       O538   2.004       .  S
Cu206       O539   2.008       .  S
Cu206      Cu373   2.380   1_556  S
C210        C348   1.463       .  S
O211       Cu219   2.004       .  S
O211        C221   1.277       .  A
O212       Cu219   2.004       .  S
O212        C222   1.277       .  A
O213       Cu555   2.009       .  S
O213        C223   1.277       .  A
O214       Cu219   2.008       .  S
O214        C224   1.277       .  A
O215       Cu220   2.008       .  S
O215        C224   1.277       .  A
O216       Cu556   2.009       .  S
O216        C223   1.277       .  A
O217       Cu220   2.004       .  S
O217        C222   1.277       .  A
O218       Cu220   2.004       .  S
O218        C221   1.277       .  A
Cu219       O549   2.009   1_545  S
Cu219      Cu220   2.380       .  S
Cu220       O552   2.008   1_545  S
C223        C278   1.458       .  S
C224        C333   1.458       .  S
O225       Cu233   2.008       .  S
O225        C907   1.277       .  A
O226       Cu233   2.009       .  S
O226        C740   1.278   1_455  A
O227       Cu233   2.008       .  S
O227        C909   1.278   1_455  A
O228        C910   1.278       .  A
O229       Cu234   2.008       .  S
O229        C238   1.278       .  A
O230        C237   1.278       .  A
O231       Cu234   2.009       .  S
O231        C236   1.278       .  A
O232       Cu234   2.009       .  S
Cu233      Cu738   2.378   1_455  S
Cu234      Cu737   2.378       .  S
C235        O897   1.277       .  A
C236        O730   1.278       .  A
C236        C293   1.467       .  S
C237        O899   1.278       .  A
C237        C249   1.466       .  S
C238        O900   1.278       .  A
C238        C250   1.466       .  S
O239       Cu247   2.008       .  S
O239        C249   1.278       .  A
O240       Cu247   2.008       .  S
O240        C250   1.278       .  A
O241       Cu247   2.009       .  S
O241        C251   1.278       .  A
O242       Cu247   2.009       .  S
O242        C252   1.277       .  A
O243       Cu248   2.009       .  S
O243        C924   1.277       .  A
O244       Cu248   2.009       .  S
O244        C923   1.278   1_455  A
O245       Cu248   2.008       .  S
O245        C922   1.278   1_455  A
O246       Cu248   2.008       .  S
O246        C921   1.278   1_455  A
Cu247      Cu920   2.378       .  S
Cu248      Cu919   2.378   1_455  S
C249        O918   1.278       .  A
C250        O917   1.278       .  A
C251        O916   1.278       .  A
C251        C305   1.467       .  S
C252        O915   1.277       .  A
O253       Cu261   2.009       .  S
O253        C263   1.278       .  A
O254       Cu261   2.008       .  S
O255       Cu261   2.008       .  S
O255        C265   1.278       .  A
O256        C266   1.278       .  A
O257       Cu262   2.008       .  S
O257        C266   1.278       .  A
O258        C265   1.278       .  A
O259       Cu262   2.009       .  S
O259        C264   1.277       .  A
O260       Cu262   2.009       .  S
C263        C322   1.467   1_556  S
C265        C280   1.466       .  S
C266        C279   1.466       .  S
O267       Cu275   2.009       .  S
O267        C277   1.278       .  A
O268       Cu275   2.009       .  S
O268        C278   1.277       .  A
O269       Cu275   2.008       .  S
O269        C279   1.278       .  A
O270       Cu275   2.008       .  S
O270        C280   1.278       .  A
O271       Cu276   2.008       .  S
O271        C280   1.278       .  A
O272       Cu276   2.008       .  S
O272        C279   1.278       .  A
O273       Cu276   2.009       .  S
O273        C278   1.277       .  A
O274       Cu276   2.009       .  S
O274        C277   1.278       .  A
Cu275      Cu276   2.378       .  S
C277        C334   1.467       .  S
O281        C963   1.278       .  A
O282       Cu289   2.008   1_556  S
O282        C964   1.278       .  A
O283       Cu289   2.009       .  S
O283        C797   1.278   1_455  A
O284        C798   1.277       .  A
O285       Cu290   2.008       .  S
O287        C292   1.278       .  A
O288       Cu290   2.008       .  S
O288        C291   1.278       .  A
Cu289      Cu794   2.378   1_455  S
Cu290      Cu793   2.378       .  S
C291        O953   1.278       .  A
C291        C308   1.466       .  S
C292        O954   1.278       .  A
C292        C307   1.466       .  S
C293        O787   1.278       .  A
C294        O788   1.277       .  A
C294        C685   1.458       .  S
O295       Cu303   2.009       .  S
O295        C305   1.278       .  A
O296       Cu303   2.008       .  S
O296        C306   1.277       .  A
O297       Cu303   2.008       .  S
O297        C307   1.278       .  A
O298       Cu303   2.008       .  S
O298        C308   1.278       .  A
O299       Cu304   2.008       .  S
O299        C980   1.278       .  A
O300       Cu304   2.008       .  S
O300        C979   1.278   1_455  A
O301       Cu304   2.008       .  S
O301        C978   1.277       .  A
O302       Cu304   2.009       .  S
O302        C977   1.278   1_455  A
Cu303      Cu976   2.378       .  S
Cu304      Cu975   2.378   1_455  S
C305        O974   1.278       .  A
C306        O973   1.277       .  A
C306        C865   1.458       .  S
C307        O972   1.278       .  A
C308        O971   1.278       .  A
O309        C319   1.278       .  A
O310       Cu317   2.008   1_556  S
O310        C320   1.278       .  A
O311       Cu317   2.009       .  S
O313       Cu318   2.009       .  S
O315        C320   1.278       .  A
O316       Cu318   2.008       .  S
O316        C319   1.278       .  A
C319        C336   1.466       .  S
C320        C335   1.466       .  S
O323       Cu331   2.008       .  S
O323        C333   1.277       .  A
O324       Cu331   2.009       .  S
O324        C334   1.278       .  A
O325       Cu331   2.008       .  S
O325        C335   1.278       .  A
O326       Cu331   2.008       .  S
O326        C336   1.278       .  A
O327       Cu332   2.008       .  S
O327        C336   1.278       .  A
O328       Cu332   2.008       .  S
O328        C335   1.278       .  A
O329       Cu332   2.009       .  S
O329        C334   1.278       .  A
O330       Cu332   2.008       .  S
O330        C333   1.277       .  A
Cu331      Cu332   2.378       .  S
O337      Cu1017   2.004   1_455  S
O337        C515   1.277       .  A
O338       Cu345   2.004       .  S
O339       Cu345   2.008       .  S
O339       C1189   1.277       .  A
O340       Cu681   2.009   1_565  S
O340       C1190   1.277       .  A
O341       Cu346   2.008   1_565  S
O341       C1022   1.277   1_554  A
O342       Cu682   2.009       .  S
O342       C1021   1.277       .  A
O343      Cu1018   2.004       .  S
O343        C348   1.277   1_544  A
O344       Cu346   2.004   1_565  S
Cu345      O1009   2.004       .  S
Cu345       O676   2.009       .  S
Cu345      Cu850   2.380       .  S
Cu346       O678   2.009       .  S
Cu346      O1015   2.004   1_455  S
Cu346      Cu849   2.380   1_554  S
C347        O505   1.277   1_554  A
C347        C545   1.463       .  S
C349       O1179   1.277   1_554  A
C349       O1014   1.277       .  A
C349       C1302   1.458       .  S
C350       O1180   1.277       .  A
C350       O1013   1.277   1_556  A
C350        C571   1.458       .  S
O351        C361   1.277       .  A
O352       Cu359   2.009   1_565  S
O352       C1034   1.277       .  A
O353       Cu359   2.004   1_455  S
O354       Cu695   2.004       .  S
O354        C364   1.277       .  A
O355       Cu360   2.004       .  S
O355        C364   1.277       .  A
O356      Cu1032   2.004       .  S
O356        C363   1.277       .  A
O357        C362   1.277       .  A
O358       Cu360   2.008       .  S
O358       C1033   1.277       .  A
Cu359       O690   2.004       .  S
Cu359      Cu696   2.380       .  S
Cu360      O1028   2.004       .  S
Cu360      Cu695   2.380       .  S
C361       O1030   1.277       .  A
C361       C1146   1.458       .  S
C362       O1024   1.277       .  A
C362        C420   1.458       .  S
C363        C389   1.463       .  S
C364        C390   1.463       .  S
O365        C543   1.277   1_554  A
O366       Cu373   2.008       .  S
O366        C544   1.277       .  A
O367       Cu373   2.004       .  S
O367        C545   1.277       .  A
O368       Cu373   2.004       .  S
O368        C546   1.277   1_554  A
O369        C378   1.277       .  A
O370        C377   1.277       .  A
O371        C376   1.277       .  A
O372       Cu374   2.008   1_565  S
O372        C375   1.277       .  A
C375        O533   1.277       .  A
C375        C600   1.458       .  S
C376        O534   1.277       .  A
C376        C657   1.458       .  S
C377        O535   1.277       .  A
C377        C515   1.463       .  S
C378        O536   1.277       .  A
O379       Cu387   2.003       .  S
O379        C389   1.277       .  A
O380       Cu387   2.004       .  S
O380        C390   1.277       .  A
O381        C391   1.277       .  A
O382       Cu387   2.009       .  S
O382        C392   1.277       .  A
O383       Cu388   2.009       .  S
O383        C392   1.277       .  A
O384        C391   1.277       .  A
O385       Cu388   2.004       .  S
O385        C390   1.277       .  A
O386       Cu388   2.004       .  S
O386        C389   1.277       .  A
Cu387      Cu388   2.380       .  S
C391        C446   1.458       .  S
C392        C501   1.458       .  S
O393       Cu401   2.009       .  S
O393       C1075   1.277       .  A
O394       Cu401   2.009       .  S
O394       C1244   1.278       .  A
O395       Cu401   2.008       .  S
O395       C1077   1.278   1_455  A
O396       Cu569   2.008   1_554  S
O396       C1078   1.278   1_455  A
O397       Cu402   2.008   1_554  S
O397        C406   1.278       .  A
O398       Cu570   2.008       .  S
O398        C405   1.278       .  A
O399       Cu402   2.009       .  S
O399        C404   1.278       .  A
O400       Cu402   2.009       .  S
O400        C571   1.277       .  A
Cu401       O564   2.008       .  S
Cu401     Cu1242   2.378   1_455  S
Cu402       O566   2.008       .  S
Cu402     Cu1241   2.378       .  S
C403       O1065   1.277       .  A
C403        O568   1.277       .  A
C403        C518   1.458       .  S
C404       O1234   1.278       .  A
C404        C461   1.467   1_556  S
C405       O1067   1.278       .  A
C405        C417   1.466       .  S
C406       O1068   1.278       .  A
C406        C418   1.466       .  S
O407       Cu415   2.008       .  S
O407        C417   1.278       .  A
O408       Cu415   2.008       .  S
O408        C418   1.278       .  A
O409       Cu415   2.009       .  S
O409        C419   1.278       .  A
O410       Cu415   2.009       .  S
O410        C420   1.277       .  A
O411       Cu416   2.009       .  S
O411       C1092   1.277   1_455  A
O412       Cu416   2.009       .  S
O412       C1091   1.278   1_455  A
O413       Cu416   2.008       .  S
O413       C1090   1.278   1_455  A
O414       Cu416   2.008       .  S
O414       C1089   1.278   1_455  A
Cu415     Cu1088   2.378       .  S
Cu416     Cu1087   2.378   1_455  S
C417       O1086   1.278       .  A
C418       O1085   1.278       .  A
C419       O1084   1.278       .  A
C419        C473   1.467       .  S
C420       O1083   1.277       .  A
O421       Cu429   2.009       .  S
O421        C431   1.278       .  A
O422       Cu429   2.008       .  S
O422        C600   1.277       .  A
O423       Cu429   2.008       .  S
O423        C433   1.278       .  A
O424       Cu597   2.008   1_554  S
O424        C434   1.278       .  A
O425       Cu430   2.008   1_554  S
O425        C434   1.278       .  A
O426       Cu598   2.008       .  S
O426        C433   1.278       .  A
O427       Cu430   2.009       .  S
O427        C432   1.277       .  A
O428       Cu430   2.009       .  S
O428        C599   1.278       .  A
Cu429       O592   2.008       .  S
Cu429      Cu598   2.378       .  S
Cu430       O594   2.008       .  S
Cu430      Cu597   2.378       .  S
C431        O596   1.278       .  A
C431        C490   1.467       .  S
C432        O590   1.277       .  A
C432        C543   1.458       .  S
C433        C448   1.466       .  S
C434        C447   1.466       .  S
O435       Cu443   2.009       .  S
O435        C445   1.278       .  A
O436       Cu443   2.009       .  S
O436        C446   1.277       .  A
O437       Cu443   2.008       .  S
O437        C447   1.278       .  A
O438       Cu443   2.008       .  S
O438        C448   1.278       .  A
O439       Cu444   2.008       .  S
O439        C448   1.278       .  A
O440       Cu444   2.008       .  S
O440        C447   1.278       .  A
O441       Cu444   2.009       .  S
O441        C446   1.277       .  A
O442       Cu444   2.009       .  S
O442        C445   1.278       .  A
Cu443      Cu444   2.378       .  S
C445        C502   1.467       .  S
O449       Cu625   2.008       .  S
O449       C1131   1.278   1_455  A
O450       Cu457   2.008       .  S
O450       C1132   1.278       .  A
O451       Cu457   2.009       .  S
O451       C1301   1.278       .  A
O452       Cu625   2.009       .  S
O452       C1302   1.277       .  A
O453       Cu458   2.009       .  S
O453        C630   1.277       .  A
O454       Cu626   2.009       .  S
O454        C629   1.278       .  A
O455       Cu626   2.008       .  S
O455        C460   1.278       .  A
O456       Cu458   2.008       .  S
O456        C459   1.278       .  A
Cu457       O617   2.008       .  S
Cu457       O620   2.008       .  S
Cu457     Cu1298   2.378   1_455  S
Cu458       O622   2.009       .  S
Cu458       O623   2.008   1_554  S
Cu458     Cu1297   2.378       .  S
C459       O1121   1.278       .  A
C459        C476   1.466       .  S
C460       O1122   1.278       .  A
C460        C475   1.466       .  S
C461       O1291   1.278       .  A
C461        O622   1.278       .  A
C462       O1292   1.277       .  A
C462        O621   1.277       .  A
C462       C1189   1.458       .  S
O463       Cu471   2.009       .  S
O463        C473   1.278       .  A
O464       Cu471   2.008       .  S
O464        C474   1.277       .  A
O465       Cu471   2.008       .  S
O465        C475   1.278       .  A
O466       Cu471   2.008       .  S
O466        C476   1.278       .  A
O467       Cu472   2.008       .  S
O467       C1148   1.278   1_455  A
O468       Cu472   2.008       .  S
O468       C1147   1.278       .  A
O469       Cu472   2.008       .  S
O469       C1146   1.277   1_455  A
O470       Cu472   2.009       .  S
O470       C1145   1.278   1_455  A
Cu471     Cu1144   2.378       .  S
Cu472     Cu1143   2.378   1_455  S
C473       O1142   1.278       .  A
C474       O1141   1.277       .  A
C474       C1033   1.458       .  S
C475       O1140   1.278       .  A
C476       O1139   1.278       .  A
O477       Cu653   2.008       .  S
O477        C487   1.278       .  A
O478       Cu485   2.008       .  S
O478        C488   1.278       .  A
O479       Cu485   2.009       .  S
O479        C657   1.277       .  A
O480       Cu653   2.009       .  S
O480        C658   1.278       .  A
O481       Cu486   2.009       .  S
O481        C658   1.278       .  A
O482       Cu654   2.009       .  S
O482        C657   1.277       .  A
O483       Cu654   2.008       .  S
O483        C488   1.278       .  A
O484       Cu486   2.008       .  S
O484        C487   1.278       .  A
Cu485       O645   2.008       .  S
Cu485       O648   2.009       .  S
Cu485      Cu654   2.378       .  S
Cu486       O650   2.008       .  S
Cu486       O651   2.008   1_554  S
Cu486      Cu653   2.378       .  S
C487        C504   1.466       .  S
C488        C503   1.466       .  S
C489        O647   1.277       .  A
C489        O650   1.277       .  A
C489        C544   1.458       .  S
C490        O648   1.278       .  A
C490        O649   1.278       .  A
O491       Cu499   2.009       .  S
O491        C501   1.277       .  A
O492       Cu499   2.009       .  S
O492        C502   1.278       .  A
O493       Cu499   2.008       .  S
O493        C503   1.278       .  A
O494       Cu499   2.008       .  S
O494        C504   1.278       .  A
O495       Cu500   2.008       .  S
O495        C504   1.278       .  A
O496       Cu500   2.008       .  S
O496        C503   1.278       .  A
O497       Cu500   2.009       .  S
O497        C502   1.278       .  A
O498       Cu500   2.009       .  S
O498        C501   1.277       .  A
Cu499      Cu500   2.378       .  S
O505      Cu1185   2.004       .  S
O506       Cu513   2.004       .  S
O507       Cu513   2.009       .  S
O507       C1021   1.277   1_556  A
O508       Cu849   2.009   1_565  S
O508       C1022   1.277       .  A
O509       Cu514   2.009   1_565  S
O509       C1190   1.277       .  A
O510       Cu850   2.008       .  S
O510       C1189   1.277       .  A
O511      Cu1186   2.004       .  S
O511        C516   1.277       .  A
O512       Cu514   2.004       .  S
Cu513      O1177   2.004       .  S
Cu513       O844   2.008       .  S
Cu513      Cu682   2.380   1_556  S
Cu514       O846   2.008       .  S
Cu514      O1183   2.004   1_455  S
Cu514      Cu681   2.380       .  S
C517       O1011   1.277       .  A
C517       O1182   1.277       .  A
C517       C1134   1.458   1_655  S
C518       O1012   1.277       .  A
C518       O1181   1.277       .  A
O519        C529   1.277       .  A
O520       Cu527   2.009   1_565  S
O520       C1202   1.277       .  A
O521       Cu527   2.004   1_455  S
O522       Cu863   2.004       .  S
O522        C532   1.277       .  A
O523       Cu528   2.004       .  S
O523        C532   1.277       .  A
O524      Cu1200   2.004       .  S
O524        C531   1.277       .  A
O525        C530   1.277       .  A
O526       Cu528   2.008       .  S
O526       C1201   1.277       .  A
Cu527       O858   2.004       .  S
Cu527      Cu864   2.380       .  S
Cu528      O1196   2.004       .  S
Cu528      Cu863   2.380       .  S
C529       O1198   1.277       .  A
C529       C1314   1.458       .  S
C530       O1192   1.277       .  A
C530        C588   1.458       .  S
C531        C557   1.463       .  S
C532        C558   1.463       .  S
O534       Cu541   2.009       .  S
O535       Cu541   2.004       .  S
O536       Cu541   2.004       .  S
O537        C546   1.277       .  A
O538        C545   1.277   1_556  A
O539        C544   1.277   1_556  A
O540       Cu542   2.009       .  S
O540        C543   1.277       .  A
O547       Cu555   2.004       .  S
O547        C557   1.277       .  A
O548       Cu555   2.004       .  S
O548        C558   1.277       .  A
O549        C559   1.277       .  A
O550       Cu555   2.009       .  S
O550        C560   1.277       .  A
O551       Cu556   2.009       .  S
O551        C560   1.277       .  A
O552        C559   1.277       .  A
O553       Cu556   2.004       .  S
O553        C558   1.277       .  A
O554       Cu556   2.003       .  S
O554        C557   1.277       .  A
Cu555      Cu556   2.380       .  S
C559        C614   1.458       .  S
C560        C669   1.458       .  S
O561       Cu569   2.009       .  S
O561       C1243   1.277       .  A
O562       Cu569   2.009       .  S
O562       C1076   1.278   1_455  A
O563       Cu569   2.008       .  S
O563       C1245   1.278   1_455  A
O564       C1246   1.278   1_455  A
O565       Cu570   2.008       .  S
O565        C574   1.278       .  A
O566        C573   1.278       .  A
O567       Cu570   2.009       .  S
O567        C572   1.278       .  A
O568       Cu570   2.009       .  S
Cu569     Cu1074   2.378   1_455  S
Cu570     Cu1073   2.378       .  S
C571       O1233   1.277       .  A
C572       O1066   1.278       .  A
C572        C629   1.467       .  S
C573       O1235   1.278       .  A
C573        C585   1.466       .  S
C574       O1236   1.278       .  A
C574        C586   1.466       .  S
O575       Cu583   2.008       .  S
O575        C585   1.278       .  A
O576       Cu583   2.008       .  S
O576        C586   1.278       .  A
O577       Cu583   2.009       .  S
O577        C587   1.278       .  A
O578       Cu583   2.009       .  S
O578        C588   1.277       .  A
O579       Cu584   2.009       .  S
O579       C1260   1.277   1_455  A
O580       Cu584   2.009       .  S
O580       C1259   1.278   1_455  A
O581       Cu584   2.008       .  S
O581       C1258   1.278   1_455  A
O582       Cu584   2.008       .  S
O582       C1257   1.278   1_455  A
Cu583     Cu1256   2.378       .  S
Cu584     Cu1255   2.378   1_455  S
C585       O1254   1.278       .  A
C586       O1253   1.278       .  A
C587       O1252   1.278       .  A
C587        C641   1.467       .  S
C588       O1251   1.277       .  A
O589       Cu597   2.009       .  S
O589        C599   1.278       .  A
O590       Cu597   2.009       .  S
O591       Cu597   2.008       .  S
O591        C601   1.278       .  A
O592        C602   1.278       .  A
O593       Cu598   2.008       .  S
O593        C602   1.278       .  A
O594        C601   1.278       .  A
O595       Cu598   2.008       .  S
O595        C600   1.277       .  A
O596       Cu598   2.009       .  S
C599        C658   1.467   1_556  S
C601        C616   1.466       .  S
C602        C615   1.466       .  S
O603       Cu611   2.009       .  S
O603        C613   1.278       .  A
O604       Cu611   2.009       .  S
O604        C614   1.277       .  A
O605       Cu611   2.008       .  S
O605        C615   1.278       .  A
O606       Cu611   2.008       .  S
O606        C616   1.278       .  A
O607       Cu612   2.008       .  S
O607        C616   1.278       .  A
O608       Cu612   2.008       .  S
O608        C615   1.278       .  A
O609       Cu612   2.009       .  S
O609        C614   1.277       .  A
O610       Cu612   2.009       .  S
O610        C613   1.278       .  A
Cu611      Cu612   2.378       .  S
C613        C670   1.467       .  S
O617       C1299   1.278       .  A
O618       Cu625   2.008   1_556  S
O618       C1300   1.278   1_455  A
O619       Cu625   2.009       .  S
O619       C1133   1.278   1_455  A
O620       C1134   1.277       .  A
O621       Cu626   2.008       .  S
O623        C628   1.278       .  A
O624       Cu626   2.008       .  S
O624        C627   1.278       .  A
Cu625     Cu1130   2.378   1_455  S
Cu626     Cu1129   2.378       .  S
C627       O1289   1.278       .  A
C627        C644   1.466       .  S
C628       O1290   1.278       .  A
C628        C643   1.466       .  S
C629       O1123   1.278       .  A
C630       O1124   1.277       .  A
C630       C1021   1.458       .  S
O631       Cu639   2.009       .  S
O631        C641   1.278       .  A
O632       Cu639   2.008       .  S
O632        C642   1.277       .  A
O633       Cu639   2.008       .  S
O633        C643   1.278       .  A
O634       Cu639   2.008       .  S
O634        C644   1.278       .  A
O635       Cu640   2.008       .  S
O635       C1316   1.278       .  A
O636       Cu640   2.008       .  S
O636       C1315   1.278   1_455  A
O637       Cu640   2.008       .  S
O637       C1314   1.277   1_455  A
O638       Cu640   2.009       .  S
O638       C1313   1.278   1_455  A
Cu639     Cu1312   2.378       .  S
Cu640     Cu1311   2.378   1_455  S
C641       O1310   1.278       .  A
C642       O1309   1.277       .  A
C642       C1201   1.458       .  S
C643       O1308   1.278       .  A
C644       O1307   1.278       .  A
O645        C655   1.278       .  A
O646       Cu653   2.008   1_556  S
O646        C656   1.278       .  A
O647       Cu653   2.009       .  S
O649       Cu654   2.009       .  S
O651        C656   1.278       .  A
O652       Cu654   2.008       .  S
O652        C655   1.278       .  A
C655        C672   1.466       .  S
C656        C671   1.466       .  S
O659       Cu667   2.009       .  S
O659        C669   1.277       .  A
O660       Cu667   2.009       .  S
O660        C670   1.278       .  A
O661       Cu667   2.008       .  S
O661        C671   1.278       .  A
O662       Cu667   2.008       .  S
O662        C672   1.278       .  A
O663       Cu668   2.008       .  S
O663        C672   1.278       .  A
O664       Cu668   2.008       .  S
O664        C671   1.278       .  A
O665       Cu668   2.009       .  S
O665        C670   1.278       .  A
O666       Cu668   2.009       .  S
O666        C669   1.277       .  A
Cu667      Cu668   2.378       .  S
O673        C851   1.277       .  A
O674       Cu681   2.004   1_655  S
O674       C1188   1.277       .  A
O675       Cu681   2.008       .  S
O677       Cu682   2.008       .  S
O679        C684   1.277   1_554  A
O680       Cu682   2.004       .  S
O680       C1019   1.277       .  A
C683        O841   1.277   1_564  A
C683       O1016   1.277       .  A
C683        C881   1.463       .  S
C684       O1178   1.277       .  A
C684       C1218   1.463       .  S
C686        C907   1.458       .  S
O687      Cu1031   2.008       .  S
O687        C697   1.277       .  A
O688       Cu695   2.009       .  S
O689       Cu695   2.004       .  S
O689       C1035   1.277       .  A
O690        C700   1.277       .  A
O691       Cu696   2.004       .  S
O691        C700   1.277       .  A
O692        C699   1.277       .  A
O693      Cu1032   2.009       .  S
O693        C698   1.277       .  A
O694       Cu696   2.008   1_455  S
Cu695      O1023   2.008       .  S
Cu696      O1029   2.009   1_545  S
C698        C756   1.458       .  S
C699       O1025   1.277       .  A
C699        C725   1.463       .  S
C700        C726   1.463       .  S
O701      Cu1045   2.008       .  S
O701        C879   1.277   1_554  A
O702       Cu709   2.009   1_545  S
O702        C880   1.277       .  A
O703       Cu709   2.003       .  S
O703        C881   1.277       .  A
O704       Cu709   2.004       .  S
O704        C882   1.277   1_554  A
O705      Cu1046   2.004       .  S
O705        C714   1.277       .  A
O706      Cu1046   2.004       .  S
O706        C713   1.277       .  A
O707      Cu1046   2.008       .  S
O707        C712   1.277       .  A
O708       Cu710   2.009       .  S
O708        C711   1.277       .  A
Cu709      O1037   2.009       .  S
Cu709     Cu1214   2.380   1_554  S
Cu710      O1041   2.004       .  S
Cu710      O1042   2.004       .  S
Cu710      O1043   2.009       .  S
Cu710     Cu1213   2.380       .  S
C711        O869   1.277       .  A
C711        C936   1.458       .  S
C712        O870   1.277       .  A
C712        C993   1.458       .  S
C713        O871   1.277       .  A
C713        C851   1.463       .  S
C714        O872   1.277       .  A
C714       C1188   1.463       .  S
O715       Cu723   2.004       .  S
O715        C725   1.277       .  A
O716       Cu723   2.004       .  S
O716        C726   1.277       .  A
O717      Cu1059   2.009       .  S
O717        C727   1.277       .  A
O718       Cu723   2.008       .  S
O718        C728   1.277       .  A
O719       Cu724   2.008       .  S
O719        C728   1.277       .  A
O720      Cu1060   2.009       .  S
O720        C727   1.277       .  A
O721       Cu724   2.004       .  S
O721        C726   1.277       .  A
O722       Cu724   2.004       .  S
O722        C725   1.277       .  A
Cu723      O1053   2.008   1_545  S
Cu723      Cu724   2.380       .  S
Cu724      O1056   2.009   1_545  S
C727        C782   1.458       .  S
C728        C837   1.458       .  S
O729       Cu737   2.009       .  S
O730       Cu737   2.009       .  S
O731       Cu737   2.008       .  S
O732       Cu905   2.008   1_554  S
O733       Cu738   2.008   1_554  S
O733        C742   1.278       .  A
O734       Cu906   2.008       .  S
O734        C741   1.278   1_655  A
O735       Cu738   2.009       .  S
O735        C740   1.278       .  A
O736       Cu738   2.009       .  S
O736        C907   1.277   1_655  A
Cu737       O900   2.008       .  S
Cu738       O902   2.008       .  S
C739        O904   1.277       .  A
C739        C854   1.458       .  S
C740        C797   1.467   1_556  S
C741        C753   1.466   1_455  S
C742        C754   1.466       .  S
O743       Cu751   2.008       .  S
O743        C753   1.278       .  A
O744       Cu751   2.008       .  S
O744        C754   1.278       .  A
O745       Cu751   2.009       .  S
O745        C755   1.278       .  A
O746       Cu751   2.009       .  S
O746        C756   1.277   1_655  A
O747       Cu752   2.009       .  S
O748       Cu752   2.009       .  S
O749       Cu752   2.008       .  S
O750       Cu752   2.008       .  S
C755        C809   1.467       .  S
O757       Cu765   2.009       .  S
O757        C767   1.278       .  A
O758       Cu765   2.009       .  S
O758        C936   1.277       .  A
O759       Cu765   2.008       .  S
O759        C769   1.278       .  A
O760       Cu933   2.008   1_554  S
O760        C770   1.278       .  A
O761       Cu766   2.008   1_554  S
O761        C770   1.278       .  A
O762       Cu934   2.008       .  S
O762        C769   1.278       .  A
O763       Cu766   2.008       .  S
O763        C768   1.277       .  A
O764       Cu766   2.009       .  S
O764        C935   1.278       .  A
Cu765       O928   2.008       .  S
Cu765      Cu934   2.378       .  S
Cu766       O930   2.008       .  S
Cu766      Cu933   2.378       .  S
C767        O932   1.278       .  A
C767        C826   1.467       .  S
C768        O926   1.277       .  A
C768        C879   1.458       .  S
C769        C784   1.466       .  S
C770        C783   1.466       .  S
O771       Cu779   2.009       .  S
O771        C781   1.278       .  A
O772       Cu779   2.009       .  S
O772        C782   1.277       .  A
O773       Cu779   2.008       .  S
O773        C783   1.278       .  A
O774       Cu779   2.008       .  S
O774        C784   1.278       .  A
O775       Cu780   2.008       .  S
O775        C784   1.278       .  A
O776       Cu780   2.008       .  S
O776        C783   1.278       .  A
O777       Cu780   2.009       .  S
O777        C782   1.277       .  A
O778       Cu780   2.009       .  S
O778        C781   1.278       .  A
Cu779      Cu780   2.378       .  S
C781        C838   1.467       .  S
O785       Cu961   2.008       .  S
O786       Cu793   2.008       .  S
O787       Cu793   2.009       .  S
O788       Cu961   2.008       .  S
O789       Cu794   2.008       .  S
O789        C966   1.277   1_655  A
O790       Cu962   2.009       .  S
O790        C965   1.278   1_655  A
O791       Cu962   2.008       .  S
O791        C796   1.278   1_655  A
O792       Cu794   2.008       .  S
O792        C795   1.278   1_655  A
Cu793       O953   2.008       .  S
Cu793       O956   2.008       .  S
Cu794       O958   2.009       .  S
Cu794       O959   2.008   1_554  S
C795        C812   1.466   1_455  S
C796        C811   1.466       .  S
C797        O958   1.278       .  A
C798        O957   1.277   1_455  A
O799       Cu807   2.009       .  S
O799        C809   1.278       .  A
O800       Cu807   2.008       .  S
O800        C810   1.277   1_655  A
O801       Cu807   2.008       .  S
O801        C811   1.278   1_655  A
O802       Cu807   2.008       .  S
O802        C812   1.278       .  A
O803       Cu808   2.008       .  S
O804       Cu808   2.008       .  S
O805       Cu808   2.008       .  S
O806       Cu808   2.009       .  S
O813       Cu989   2.008       .  S
O813        C823   1.278       .  A
O814       Cu821   2.008       .  S
O814        C824   1.278       .  A
O815       Cu821   2.008       .  S
O815        C993   1.277       .  A
O816       Cu989   2.009       .  S
O816        C994   1.278       .  A
O817       Cu822   2.009       .  S
O817        C994   1.278       .  A
O818       Cu990   2.008       .  S
O818        C993   1.277       .  A
O819       Cu990   2.008       .  S
O819        C824   1.278       .  A
O820       Cu822   2.008       .  S
O820        C823   1.278       .  A
Cu821       O981   2.008       .  S
Cu821       O984   2.009       .  S
Cu821      Cu990   2.378       .  S
Cu822       O986   2.009       .  S
Cu822       O987   2.008   1_554  S
Cu822      Cu989   2.378       .  S
C823        C840   1.466       .  S
C824        C839   1.466       .  S
C825        O983   1.277       .  A
C825        O986   1.277       .  A
C825        C880   1.458       .  S
C826        O984   1.278       .  A
C826        O985   1.278       .  A
O827       Cu835   2.008       .  S
O827        C837   1.277       .  A
O828       Cu835   2.009       .  S
O828        C838   1.278       .  A
O829       Cu835   2.008       .  S
O829        C839   1.278       .  A
O830       Cu835   2.008       .  S
O830        C840   1.278       .  A
O831       Cu836   2.008       .  S
O831        C840   1.278       .  A
O832       Cu836   2.008       .  S
O832        C839   1.278       .  A
O833       Cu836   2.009       .  S
O833        C838   1.278       .  A
O834       Cu836   2.008       .  S
O834        C837   1.277       .  A
Cu835      Cu836   2.378       .  S
O842       Cu849   2.004   1_655  S
O842       C1020   1.277   1_545  A
O843       Cu849   2.008       .  S
O845       Cu850   2.009       .  S
O847        C852   1.277       .  A
O848       Cu850   2.004       .  S
O848       C1187   1.277       .  A
C851       O1184   1.277       .  A
C852       O1010   1.277       .  A
C852       C1050   1.463       .  S
O855      Cu1199   2.008       .  S
O855        C865   1.277       .  A
O856       Cu863   2.009       .  S
O857       Cu863   2.004       .  S
O857       C1203   1.277       .  A
O858        C868   1.277       .  A
O859       Cu864   2.004       .  S
O859        C868   1.277       .  A
O860        C867   1.277       .  A
O861      Cu1200   2.009       .  S
O861        C866   1.277       .  A
O862       Cu864   2.008   1_455  S
Cu863      O1191   2.008       .  S
Cu864      O1197   2.009   1_545  S
C866        C924   1.458       .  S
C867       O1193   1.277       .  A
C867        C893   1.463       .  S
C868        C894   1.463       .  S
O869      Cu1213   2.009       .  S
O870       Cu877   2.008       .  S
O871       Cu877   2.004       .  S
O872       Cu877   2.004       .  S
O873      Cu1214   2.004       .  S
O873        C882   1.277       .  A
O874      Cu1214   2.003       .  S
O874        C881   1.277   1_556  A
O875      Cu1214   2.009   1_545  S
O875        C880   1.277   1_556  A
O876       Cu878   2.008       .  S
O876        C879   1.277       .  A
Cu877      O1205   2.008   1_545  S
Cu877     Cu1046   2.380       .  S
Cu878      O1209   2.004       .  S
Cu878      O1210   2.004       .  S
Cu878      O1211   2.008       .  S
Cu878     Cu1045   2.380   1_556  S
C882       C1020   1.463       .  S
O883       Cu891   2.004       .  S
O883        C893   1.277       .  A
O884       Cu891   2.004       .  S
O884        C894   1.277       .  A
O885      Cu1227   2.009       .  S
O885        C895   1.277       .  A
O886       Cu891   2.008       .  S
O886        C896   1.277       .  A
O887       Cu892   2.008       .  S
O887        C896   1.277       .  A
O888      Cu1228   2.009       .  S
O888        C895   1.277       .  A
O889       Cu892   2.004       .  S
O889        C894   1.277       .  A
O890       Cu892   2.004       .  S
O890        C893   1.277       .  A
Cu891      O1221   2.009   1_545  S
Cu891      Cu892   2.380       .  S
Cu892      O1224   2.008   1_545  S
C895        C950   1.458       .  S
C896       C1005   1.458       .  S
O897       Cu905   2.008       .  S
O898       Cu905   2.009       .  S
O899       Cu905   2.008       .  S
O901       Cu906   2.008       .  S
O901        C910   1.278   1_655  A
O902        C909   1.278       .  A
O903       Cu906   2.009       .  S
O903        C908   1.278   1_655  A
O904       Cu906   2.009       .  S
C908        C965   1.467       .  S
C909        C921   1.466       .  S
C910        C922   1.466   1_455  S
O911       Cu919   2.008       .  S
O911        C921   1.278       .  A
O912       Cu919   2.008       .  S
O912        C922   1.278       .  A
O913       Cu919   2.009       .  S
O913        C923   1.278       .  A
O914       Cu919   2.009       .  S
O914        C924   1.277   1_655  A
O915       Cu920   2.009       .  S
O916       Cu920   2.009       .  S
O917       Cu920   2.008       .  S
O918       Cu920   2.008       .  S
C923        C977   1.467       .  S
O925       Cu933   2.009       .  S
O925        C935   1.278       .  A
O926       Cu933   2.008       .  S
O927       Cu933   2.008       .  S
O927        C937   1.278       .  A
O928        C938   1.278       .  A
O929       Cu934   2.008       .  S
O929        C938   1.278       .  A
O930        C937   1.278       .  A
O931       Cu934   2.009       .  S
O931        C936   1.277       .  A
O932       Cu934   2.009       .  S
C935        C994   1.467   1_556  S
C937        C952   1.466       .  S
C938        C951   1.466       .  S
O939       Cu947   2.009       .  S
O939        C949   1.278       .  A
O940       Cu947   2.009       .  S
O940        C950   1.277       .  A
O941       Cu947   2.008       .  S
O941        C951   1.278       .  A
O942       Cu947   2.008       .  S
O942        C952   1.278       .  A
O943       Cu948   2.008       .  S
O943        C952   1.278       .  A
O944       Cu948   2.008       .  S
O944        C951   1.278       .  A
O945       Cu948   2.009       .  S
O945        C950   1.277       .  A
O946       Cu948   2.009       .  S
O946        C949   1.278       .  A
Cu947      Cu948   2.378       .  S
C949       C1006   1.467       .  S
O954       Cu961   2.008   1_556  S
O955       Cu961   2.009       .  S
O957       Cu962   2.008       .  S
O959        C964   1.278   1_655  A
O960       Cu962   2.008       .  S
O960        C963   1.278   1_655  A
C963        C980   1.466       .  S
C964        C979   1.466   1_455  S
O967       Cu975   2.009       .  S
O967        C977   1.278       .  A
O968       Cu975   2.008       .  S
O968        C978   1.277   1_655  A
O969       Cu975   2.008       .  S
O969        C979   1.278       .  A
O970       Cu975   2.008       .  S
O970        C980   1.278   1_655  A
O971       Cu976   2.008       .  S
O972       Cu976   2.008       .  S
O973       Cu976   2.008       .  S
O974       Cu976   2.009       .  S
O981        C991   1.278       .  A
O982       Cu989   2.008   1_556  S
O982        C992   1.278       .  A
O983       Cu989   2.009       .  S
O985       Cu990   2.009       .  S
O987        C992   1.278       .  A
O988       Cu990   2.008       .  S
O988        C991   1.278       .  A
C991       C1008   1.466       .  S
C992       C1007   1.466       .  S
O995      Cu1003   2.008       .  S
O995       C1005   1.277       .  A
O996      Cu1003   2.009       .  S
O996       C1006   1.278       .  A
O997      Cu1003   2.008       .  S
O997       C1007   1.278       .  A
O998      Cu1003   2.008       .  S
O998       C1008   1.278       .  A
O999      Cu1004   2.008       .  S
O999       C1008   1.278       .  A
O1000     Cu1004   2.008       .  S
O1000      C1007   1.278       .  A
O1001     Cu1004   2.009       .  S
O1001      C1006   1.278       .  A
O1002     Cu1004   2.008       .  S
O1002      C1005   1.277       .  A
Cu1003    Cu1004   2.378       .  S
O1009      C1187   1.277       .  A
O1010     Cu1017   2.004       .  S
O1011     Cu1017   2.008       .  S
O1013     Cu1018   2.008   1_565  S
O1015      C1020   1.277   1_544  A
O1016     Cu1018   2.004   1_565  S
C1019      O1177   1.277   1_554  A
C1019      C1217   1.463       .  S
C1022      C1243   1.458       .  S
O1023      C1033   1.277       .  A
O1024     Cu1031   2.009   1_565  S
O1025     Cu1031   2.004       .  S
O1026      C1036   1.277       .  A
O1027     Cu1032   2.004   1_655  S
O1027      C1036   1.277       .  A
O1028      C1035   1.277       .  A
O1029      C1034   1.277       .  A
O1030     Cu1032   2.008   1_655  S
C1034      C1092   1.458       .  S
C1035      C1061   1.463       .  S
C1036      C1062   1.463       .  S
O1037      C1215   1.277   1_554  A
O1038     Cu1045   2.008       .  S
O1038      C1216   1.277       .  A
O1039     Cu1045   2.004       .  S
O1039      C1217   1.277       .  A
O1040     Cu1045   2.004       .  S
O1040      C1218   1.277   1_554  A
O1041      C1050   1.277       .  A
O1042      C1049   1.277       .  A
O1043      C1048   1.277       .  A
O1044     Cu1046   2.008   1_565  S
O1044      C1047   1.277       .  A
C1047      O1205   1.277       .  A
C1047      C1272   1.458       .  S
C1048      O1206   1.277       .  A
C1048      C1329   1.458       .  S
C1049      O1207   1.277       .  A
C1049      C1187   1.463       .  S
C1050      O1208   1.277       .  A
O1051     Cu1059   2.003       .  S
O1051      C1061   1.277       .  A
O1052     Cu1059   2.004       .  S
O1052      C1062   1.277       .  A
O1053      C1063   1.277       .  A
O1054     Cu1059   2.009       .  S
O1054      C1064   1.277       .  A
O1055     Cu1060   2.009       .  S
O1055      C1064   1.277       .  A
O1056      C1063   1.277       .  A
O1057     Cu1060   2.004       .  S
O1057      C1062   1.277       .  A
O1058     Cu1060   2.004       .  S
O1058      C1061   1.277       .  A
Cu1059    Cu1060   2.380       .  S
C1063      C1118   1.458       .  S
C1064      C1173   1.458       .  S
O1065     Cu1073   2.009       .  S
O1066     Cu1073   2.009       .  S
O1067     Cu1073   2.008       .  S
O1068     Cu1241   2.008   1_554  S
O1069     Cu1074   2.008   1_554  S
O1069      C1078   1.278       .  A
O1070     Cu1242   2.008       .  S
O1070      C1077   1.278       .  A
O1071     Cu1074   2.009       .  S
O1071      C1076   1.278       .  A
O1072     Cu1074   2.009       .  S
O1072      C1243   1.277   1_655  A
Cu1073     O1236   2.008       .  S
Cu1074     O1238   2.008       .  S
C1075      O1240   1.277   1_455  A
C1075      C1190   1.458       .  S
C1076      C1133   1.467   1_556  S
C1077      C1089   1.466       .  S
C1078      C1090   1.466       .  S
O1079     Cu1087   2.008       .  S
O1079      C1089   1.278       .  A
O1080     Cu1087   2.008       .  S
O1080      C1090   1.278       .  A
O1081     Cu1087   2.009       .  S
O1081      C1091   1.278       .  A
O1082     Cu1087   2.009       .  S
O1082      C1092   1.277       .  A
O1083     Cu1088   2.009       .  S
O1084     Cu1088   2.009       .  S
O1085     Cu1088   2.008       .  S
O1086     Cu1088   2.008       .  S
C1091      C1145   1.467       .  S
O1093     Cu1101   2.009       .  S
O1093      C1103   1.278       .  A
O1094     Cu1101   2.008       .  S
O1094      C1272   1.277       .  A
O1095     Cu1101   2.008       .  S
O1095      C1105   1.278       .  A
O1096     Cu1269   2.008   1_554  S
O1096      C1106   1.278       .  A
O1097     Cu1102   2.008   1_554  S
O1097      C1106   1.278       .  A
O1098     Cu1270   2.008       .  S
O1098      C1105   1.278       .  A
O1099     Cu1102   2.009       .  S
O1099      C1104   1.277       .  A
O1100     Cu1102   2.009       .  S
O1100      C1271   1.278       .  A
Cu1101     O1264   2.008       .  S
Cu1101    Cu1270   2.378       .  S
Cu1102     O1266   2.008       .  S
Cu1102    Cu1269   2.378       .  S
C1103      O1268   1.278       .  A
C1103      C1162   1.467       .  S
C1104      O1262   1.277       .  A
C1104      C1215   1.458       .  S
C1105      C1120   1.466       .  S
C1106      C1119   1.466       .  S
O1107     Cu1115   2.009       .  S
O1107      C1117   1.278       .  A
O1108     Cu1115   2.009       .  S
O1108      C1118   1.277       .  A
O1109     Cu1115   2.008       .  S
O1109      C1119   1.278       .  A
O1110     Cu1115   2.008       .  S
O1110      C1120   1.278       .  A
O1111     Cu1116   2.008       .  S
O1111      C1120   1.278       .  A
O1112     Cu1116   2.008       .  S
O1112      C1119   1.278       .  A
O1113     Cu1116   2.009       .  S
O1113      C1118   1.277       .  A
O1114     Cu1116   2.009       .  S
O1114      C1117   1.278       .  A
Cu1115    Cu1116   2.378       .  S
C1117      C1174   1.467       .  S
O1121     Cu1297   2.008       .  S
O1122     Cu1129   2.008       .  S
O1123     Cu1129   2.009       .  S
O1124     Cu1297   2.009       .  S
O1125     Cu1130   2.009       .  S
O1125      C1302   1.277   1_655  A
O1126     Cu1298   2.009       .  S
O1126      C1301   1.278   1_655  A
O1127     Cu1298   2.008       .  S
O1127      C1132   1.278   1_655  A
O1128     Cu1130   2.008       .  S
O1128      C1131   1.278       .  A
Cu1129     O1289   2.008       .  S
Cu1129     O1292   2.008       .  S
Cu1130     O1294   2.009       .  S
Cu1130     O1295   2.008   1_554  S
C1131      C1148   1.466       .  S
C1132      C1147   1.466       .  S
C1133      O1294   1.278       .  A
C1134      O1293   1.277   1_455  A
O1135     Cu1143   2.009       .  S
O1135      C1145   1.278       .  A
O1136     Cu1143   2.008       .  S
O1136      C1146   1.277       .  A
O1137     Cu1143   2.008       .  S
O1137      C1147   1.278   1_655  A
O1138     Cu1143   2.008       .  S
O1138      C1148   1.278       .  A
O1139     Cu1144   2.008       .  S
O1140     Cu1144   2.008       .  S
O1141     Cu1144   2.008       .  S
O1142     Cu1144   2.009       .  S
O1149     Cu1325   2.008       .  S
O1149      C1159   1.278       .  A
O1150     Cu1157   2.008       .  S
O1150      C1160   1.278       .  A
O1151     Cu1157   2.009       .  S
O1151      C1329   1.277       .  A
O1152     Cu1325   2.009       .  S
O1152      C1330   1.278       .  A
O1153     Cu1158   2.009       .  S
O1153      C1330   1.278       .  A
O1154     Cu1326   2.009       .  S
O1154      C1329   1.277       .  A
O1155     Cu1326   2.008       .  S
O1155      C1160   1.278       .  A
O1156     Cu1158   2.008       .  S
O1156      C1159   1.278       .  A
Cu1157     O1317   2.008       .  S
Cu1157     O1320   2.009       .  S
Cu1157    Cu1326   2.378       .  S
Cu1158     O1322   2.008       .  S
Cu1158     O1323   2.008   1_554  S
Cu1158    Cu1325   2.378       .  S
C1159      C1176   1.466       .  S
C1160      C1175   1.466       .  S
C1161      O1319   1.277       .  A
C1161      O1322   1.277       .  A
C1161      C1216   1.458       .  S
C1162      O1320   1.278       .  A
C1162      O1321   1.278       .  A
O1163     Cu1171   2.009       .  S
O1163      C1173   1.277       .  A
O1164     Cu1171   2.009       .  S
O1164      C1174   1.278       .  A
O1165     Cu1171   2.008       .  S
O1165      C1175   1.278       .  A
O1166     Cu1171   2.008       .  S
O1166      C1176   1.278       .  A
O1167     Cu1172   2.008       .  S
O1167      C1176   1.278       .  A
O1168     Cu1172   2.008       .  S
O1168      C1175   1.278       .  A
O1169     Cu1172   2.009       .  S
O1169      C1174   1.278       .  A
O1170     Cu1172   2.009       .  S
O1170      C1173   1.277       .  A
Cu1171    Cu1172   2.378       .  S
O1178     Cu1185   2.004   1_655  S
O1179     Cu1185   2.009       .  S
O1181     Cu1186   2.009   1_565  S
O1183      C1188   1.277       .  A
O1184     Cu1186   2.004       .  S
O1191      C1201   1.277       .  A
O1192     Cu1199   2.009   1_565  S
O1193     Cu1199   2.004       .  S
O1194      C1204   1.277       .  A
O1195     Cu1200   2.004   1_655  S
O1195      C1204   1.277       .  A
O1196      C1203   1.277       .  A
O1197      C1202   1.277       .  A
O1198     Cu1200   2.008   1_655  S
C1202      C1260   1.458       .  S
C1203      C1229   1.463       .  S
C1204      C1230   1.463       .  S
O1206     Cu1213   2.009       .  S
O1207     Cu1213   2.004       .  S
O1208     Cu1213   2.004       .  S
O1209      C1218   1.277       .  A
O1210      C1217   1.277   1_556  A
O1211      C1216   1.277   1_556  A
O1212     Cu1214   2.009       .  S
O1212      C1215   1.277       .  A
O1219     Cu1227   2.004       .  S
O1219      C1229   1.277       .  A
O1220     Cu1227   2.004       .  S
O1220      C1230   1.277       .  A
O1221      C1231   1.277       .  A
O1222     Cu1227   2.009       .  S
O1222      C1232   1.277       .  A
O1223     Cu1228   2.009       .  S
O1223      C1232   1.277       .  A
O1224      C1231   1.277       .  A
O1225     Cu1228   2.004       .  S
O1225      C1230   1.277       .  A
O1226     Cu1228   2.003       .  S
O1226      C1229   1.277       .  A
Cu1227    Cu1228   2.380       .  S
C1231      C1286   1.458       .  S
C1232      C1341   1.458       .  S
O1233     Cu1241   2.009       .  S
O1234     Cu1241   2.009       .  S
O1235     Cu1241   2.008       .  S
O1237     Cu1242   2.008       .  S
O1237      C1246   1.278       .  A
O1238      C1245   1.278       .  A
O1239     Cu1242   2.009       .  S
O1239      C1244   1.278   1_655  A
O1240     Cu1242   2.009       .  S
C1244      C1301   1.467       .  S
C1245      C1257   1.466       .  S
C1246      C1258   1.466       .  S
O1247     Cu1255   2.008       .  S
O1247      C1257   1.278       .  A
O1248     Cu1255   2.008       .  S
O1248      C1258   1.278       .  A
O1249     Cu1255   2.009       .  S
O1249      C1259   1.278       .  A
O1250     Cu1255   2.009       .  S
O1250      C1260   1.277       .  A
O1251     Cu1256   2.009       .  S
O1252     Cu1256   2.009       .  S
O1253     Cu1256   2.008       .  S
O1254     Cu1256   2.008       .  S
C1259      C1313   1.467       .  S
O1261     Cu1269   2.009       .  S
O1261      C1271   1.278       .  A
O1262     Cu1269   2.009       .  S
O1263     Cu1269   2.008       .  S
O1263      C1273   1.278       .  A
O1264      C1274   1.278       .  A
O1265     Cu1270   2.008       .  S
O1265      C1274   1.278       .  A
O1266      C1273   1.278       .  A
O1267     Cu1270   2.008       .  S
O1267      C1272   1.277       .  A
O1268     Cu1270   2.009       .  S
C1271      C1330   1.467   1_556  S
C1273      C1288   1.466       .  S
C1274      C1287   1.466       .  S
O1275     Cu1283   2.009       .  S
O1275      C1285   1.278       .  A
O1276     Cu1283   2.009       .  S
O1276      C1286   1.277       .  A
O1277     Cu1283   2.008       .  S
O1277      C1287   1.278       .  A
O1278     Cu1283   2.008       .  S
O1278      C1288   1.278       .  A
O1279     Cu1284   2.008       .  S
O1279      C1288   1.278       .  A
O1280     Cu1284   2.008       .  S
O1280      C1287   1.278       .  A
O1281     Cu1284   2.009       .  S
O1281      C1286   1.277       .  A
O1282     Cu1284   2.009       .  S
O1282      C1285   1.278       .  A
Cu1283    Cu1284   2.378       .  S
C1285      C1342   1.467       .  S
O1290     Cu1297   2.008   1_556  S
O1291     Cu1297   2.009       .  S
O1293     Cu1298   2.008       .  S
O1295      C1300   1.278       .  A
O1296     Cu1298   2.008       .  S
O1296      C1299   1.278   1_655  A
C1299      C1316   1.466       .  S
C1300      C1315   1.466       .  S
O1303     Cu1311   2.009       .  S
O1303      C1313   1.278       .  A
O1304     Cu1311   2.008       .  S
O1304      C1314   1.277       .  A
O1305     Cu1311   2.008       .  S
O1305      C1315   1.278       .  A
O1306     Cu1311   2.008       .  S
O1306      C1316   1.278   1_655  A
O1307     Cu1312   2.008       .  S
O1308     Cu1312   2.008       .  S
O1309     Cu1312   2.008       .  S
O1310     Cu1312   2.009       .  S
O1317      C1327   1.278       .  A
O1318     Cu1325   2.008   1_556  S
O1318      C1328   1.278       .  A
O1319     Cu1325   2.009       .  S
O1321     Cu1326   2.009       .  S
O1323      C1328   1.278       .  A
O1324     Cu1326   2.008       .  S
O1324      C1327   1.278       .  A
C1327      C1344   1.466       .  S
C1328      C1343   1.466       .  S
O1331     Cu1339   2.009       .  S
O1331      C1341   1.277       .  A
O1332     Cu1339   2.009       .  S
O1332      C1342   1.278       .  A
O1333     Cu1339   2.008       .  S
O1333      C1343   1.278       .  A
O1334     Cu1339   2.008       .  S
O1334      C1344   1.278       .  A
O1335     Cu1340   2.008       .  S
O1335      C1344   1.278       .  A
O1336     Cu1340   2.008       .  S
O1336      C1343   1.278       .  A
O1337     Cu1340   2.009       .  S
O1337      C1342   1.278       .  A
O1338     Cu1340   2.009       .  S
O1338      C1341   1.277       .  A
Cu1339    Cu1340   2.378       .  S
