geometry optimzed in LAMMPS
_audit_creation_date              2020-11-30 
_audit_creation_method            'lammps2cif' 
_symmetry_space_group_name_H-M    'P1' 
_symmetry_Int_Tables_number       1 
_symmetry_cell_setting            triclinic 
loop_ 
_symmetry_equiv_pos_as_xyz 
  x,y,z 
_cell_length_a                    73.04019875755114 
_cell_length_b                    73.09973935888256 
_cell_length_c                    73.10512211417624 
_cell_angle_alpha                 89.95205470243764 
_cell_angle_beta                  89.94733301728425 
_cell_angle_gamma                 90.00167725033424 
loop_ 
_atom_site_label 
_atom_site_type_symbol 
_atom_site_fract_x 
_atom_site_fract_y 
_atom_site_fract_z 
_atom_site_charge 
N1          N  0.22608830  0.00655618  0.01467753    -0.27430
N2          N  0.21694973  0.99103221  0.01574958    -0.35290
C3          C  0.20022211  0.99431564  0.02263417     0.00910
C4          C  0.19880933  0.01280322  0.02683860     0.06930
C5          C  0.21555328  0.02008330  0.02132784    -0.06170
H6          H  0.18991034  0.98386121  0.02391456     0.07600
H7          H  0.21990948  0.03419358  0.02213759     0.08800
Cu8        Cu  0.22802840  0.96582588  0.00919452     0.44170
Cu9        Cu  0.25198299  0.00855419  0.00313445     0.41990
Cu10       Cu  0.27180437  0.96574477  0.98664380     0.43880
N11         N  0.24242163  0.94215703  0.00332955    -0.34820
N12         N  0.25824859  0.94203256  0.99454352    -0.29070
C13         C  0.26362265  0.92458147  0.99217522    -0.05180
C14         C  0.25070466  0.91326718  0.00016784     0.07040
C15         C  0.23743242  0.92484048  0.00705801     0.00840
H16         H  0.27599413  0.92043686  0.98517224     0.08490
H17         H  0.22485102  0.92095281  0.01384110     0.07570
N18         N  0.28318744  0.99138697  0.98203926    -0.36270
N19         N  0.27630705  0.00682650  0.98853085    -0.28450
C20         C  0.28712068  0.02081838  0.98340310    -0.03690
C21         C  0.30141717  0.01384109  0.97318251     0.04920
C22         C  0.29845718  0.99519089  0.97245040     0.03010
H23         H  0.28455274  0.03504744  0.98655275     0.08120
H24         H  0.30681309  0.98512483  0.96552694     0.06950
N25         N  0.49089718  0.01213730  0.77227952    -0.27430
N26         N  0.50642986  0.01383659  0.78134637    -0.35290
C27         C  0.50305064  0.02189606  0.79752234     0.00910
C28         C  0.48450717  0.02590993  0.79857126     0.06930
C29         C  0.47725898  0.01928302  0.78233909    -0.06170
H30         H  0.51338527  0.02427732  0.80780448     0.07600
H31         H  0.46309605  0.01969737  0.77805658     0.08800
Cu32       Cu  0.53164967  0.00620584  0.77080948     0.44170
Cu33       Cu  0.48886689  0.99970338  0.74691614     0.41990
Cu34       Cu  0.53144940  0.98667548  0.72522331     0.43880
N35         N  0.55516611  0.00054182  0.75596065    -0.34820
N36         N  0.55509606  0.99387297  0.73915280    -0.29070
C37         C  0.57246671  0.99237490  0.73321350    -0.05180
C38         C  0.58400403  0.99844675  0.74692951     0.07040
C39         C  0.57257959  0.00334525  0.76120574     0.00840
H40         H  0.57639859  0.98690834  0.72003725     0.08490
H41         H  0.57662408  0.00868682  0.77439533     0.07570
N42         N  0.50585699  0.98035615  0.71471320    -0.36270
N43         N  0.49032182  0.98535244  0.72254053    -0.28450
C44         C  0.47624321  0.97933330  0.71236041    -0.03690
C45         C  0.48323379  0.96987215  0.69754329     0.04920
C46         C  0.50206757  0.97092791  0.69938064     0.03010
H47         H  0.46195995  0.98158506  0.71556562     0.08120
H48         H  0.51227813  0.96556369  0.69010144     0.06950
N49         N  0.72513894  0.49089132  0.98427831    -0.27430
N50         N  0.71878395  0.50586413  0.97645296    -0.35290
C51         C  0.70382982  0.50152572  0.96667969     0.00910
C52         C  0.70043465  0.48285556  0.96846162     0.06930
C53         C  0.71419292  0.47674969  0.98007271    -0.06170
H54         H  0.69600465  0.51136651  0.95888863     0.07600
H55         H  0.71605269  0.46326161  0.98570951     0.08800
Cu56       Cu  0.73007693  0.53163315  0.98056660     0.44170
Cu57       Cu  0.74908220  0.48990784  0.99930113     0.41990
Cu58       Cu  0.77311581  0.53237009  0.00548174     0.43880
N59         N  0.74299149  0.55545217  0.98918431    -0.34820
N60         N  0.75843460  0.55564361  0.99862062    -0.29070
C61         C  0.76280942  0.57305185  0.00263688    -0.05180
C62         C  0.74950745  0.58435901  0.99535680     0.07040
C63         C  0.73724923  0.57277850  0.98677280     0.00840
H64         H  0.77497570  0.57718169  0.00998149     0.08490
H65         H  0.72501460  0.57665796  0.97940079     0.07570
N66         N  0.78398056  0.50715576  0.01256057    -0.36270
N67         N  0.77486268  0.49166132  0.01082771    -0.28450
C68         C  0.78512937  0.47789276  0.01736829    -0.03690
C69         C  0.80152615  0.48502485  0.02369952     0.04920
C70         C  0.80038893  0.50363705  0.02011104     0.03010
H71         H  0.78083442  0.46373377  0.01769489     0.08120
H72         H  0.81072105  0.51392282  0.02255859     0.06950
N73         N  0.77334527  0.50759150  0.48478645    -0.27430
N74         N  0.78031445  0.49237086  0.47803886    -0.35290
C75         C  0.79541292  0.49652523  0.46836524     0.00910
C76         C  0.79811414  0.51533116  0.46901483     0.06930
C77         C  0.78395141  0.52178295  0.47988930    -0.06170
H78         H  0.80377354  0.48654455  0.46133239     0.07600
H79         H  0.78159649  0.53564721  0.48438417     0.08800
Cu80       Cu  0.76914217  0.46674868  0.48300508     0.44170
Cu81       Cu  0.74913148  0.50853892  0.49932412     0.41990
Cu82       Cu  0.72598122  0.46574772  0.50820906     0.43880
N83         N  0.75585418  0.44292846  0.49092354    -0.34820
N84         N  0.74031743  0.44252449  0.50022867    -0.29070
C85         C  0.73565615  0.42498386  0.50332627    -0.05180
C86         C  0.74873872  0.41382235  0.49537745     0.07040
C87         C  0.76142726  0.42567789  0.48780256     0.00840
H88         H  0.72353344  0.42066718  0.51066341     0.08490
H89         H  0.77394719  0.42207085  0.48076953     0.07570
N90         N  0.71501392  0.49116856  0.51465063    -0.36270
N91         N  0.72366768  0.50672771  0.51146273    -0.28450
C92         C  0.71332335  0.52070903  0.51737511    -0.03690
C93         C  0.69745624  0.51364758  0.52489929     0.04920
C94         C  0.69885974  0.49487564  0.52271523     0.03010
H95         H  0.71708059  0.53497050  0.51615913     0.08120
H96         H  0.68902849  0.48465813  0.52698885     0.06950
N97         N  0.88065309  0.57479072  0.43148697    -0.27430
N98         N  0.88190760  0.56231072  0.41846337    -0.35290
C99         C  0.86899505  0.54948859  0.42119077     0.00910
C100        C  0.85916179  0.55415908  0.43665832     0.06930
C101        C  0.86676455  0.57035847  0.44273682    -0.06170
H102        H  0.86691027  0.53767500  0.41253535     0.07600
H103        H  0.86277407  0.57812142  0.45468649     0.08800
Cu104      Cu  0.90121423  0.56307728  0.39771938     0.44170
Cu105      Cu  0.89852065  0.59664401  0.43399698     0.41990
Cu106      Cu  0.93444591  0.59972769  0.39992913     0.43880
N107        N  0.92235570  0.56625285  0.37909431    -0.34820
N108        N  0.93473721  0.57940409  0.38013410    -0.29070
C109        C  0.94718001  0.57700310  0.36678140    -0.05180
C110        C  0.94221313  0.56179884  0.35668387     0.07040
C111        C  0.92647605  0.55525033  0.36494063     0.00840
H112        H  0.95907923  0.58556857  0.36469773     0.08490
H113        H  0.91895908  0.54301403  0.36136933     0.07570
N114        N  0.93149951  0.61802991  0.42140820    -0.36270
N115        N  0.91861443  0.61663706  0.43406018    -0.28450
C116        C  0.92109250  0.62982508  0.44663024    -0.03690
C117        C  0.93605961  0.64013843  0.44145795     0.04920
C118        C  0.94239047  0.63230111  0.42546983     0.03010
H119        H  0.91275433  0.63163014  0.45873054     0.08120
H120        H  0.95433890  0.63631111  0.41768851     0.06950
N121        N  0.01153187  0.77360900  0.48899787    -0.27430
N122        N  0.01348641  0.78299176  0.50429247    -0.35290
C123        C  0.02091427  0.79933900  0.50026039     0.00910
C124        C  0.02391585  0.80034360  0.48147896     0.06930
C125        C  0.01803139  0.78351956  0.47493930    -0.06170
H126        H  0.02396287  0.80969632  0.51036069     0.07600
H127        H  0.01884528  0.77838562  0.46113627     0.08800
Cu128      Cu  0.00700319  0.77259162  0.53002024     0.44170
Cu129      Cu  0.99922719  0.74817290  0.48751627     0.41990
Cu130      Cu  0.98274575  0.72923708  0.52991817     0.43880
N131        N  0.99995033  0.75829276  0.55364845    -0.34820
N132        N  0.99069051  0.74276392  0.55353379    -0.29070
C133        C  0.98805546  0.73716323  0.57085863    -0.05180
C134        C  0.99641141  0.74951575  0.58256861     0.07040
C135        C  0.00363438  0.76284523  0.57109534     0.00840
H136        H  0.98025855  0.72515102  0.57453175     0.08490
H137        H  0.01112347  0.77495361  0.57512794     0.07570
N138        N  0.97836466  0.71713232  0.50465645    -0.36270
N139        N  0.98446880  0.72407455  0.48911322    -0.28450
C140        C  0.97940946  0.71312131  0.47524724    -0.03690
C141        C  0.96989687  0.69839918  0.48242699     0.04920
C142        C  0.96933954  0.70150148  0.50111109     0.03010
H143        H  0.98252686  0.71563600  0.46099560     0.08120
H144        H  0.96261088  0.69321430  0.51136813     0.06950
N145        N  0.51506140  0.27334662  0.98917563    -0.27430
N146        N  0.51898655  0.28143026  0.00485870    -0.35290
C147        C  0.52729125  0.29748699  0.00137269     0.00910
C148        C  0.52863452  0.29954834  0.98259767     0.06930
C149        C  0.52092693  0.28391620  0.97530315    -0.06170
H150        H  0.53216357  0.30685169  0.01173391     0.07600
H151        H  0.51944616  0.28058885  0.96096289     0.08800
Cu152      Cu  0.51309705  0.27002841  0.03019996     0.44170
Cu153      Cu  0.50152439  0.24857585  0.98728431     0.41990
Cu154      Cu  0.49151580  0.22519208  0.02976386     0.43880
N155        N  0.50609756  0.25557956  0.05364155    -0.34820
N156        N  0.49823736  0.23928642  0.05352618    -0.29070
C157        C  0.49540452  0.23387235  0.07090125    -0.05180
C158        C  0.50200641  0.24729760  0.08254442     0.07040
C159        C  0.50850503  0.26092150  0.07107053     0.00840
H160        H  0.48864963  0.22126875  0.07470685     0.08490
H161        H  0.51460491  0.27378747  0.07510155     0.07570
N162        N  0.48539710  0.21460204  0.00409492    -0.36270
N163        N  0.48853590  0.22347346  0.98866542    -0.28450
C164        C  0.48215157  0.21353914  0.97458934    -0.03690
C165        C  0.47498691  0.19731575  0.98135426     0.04920
C166        C  0.47716667  0.19862136  0.00018858     0.03010
H167        H  0.48223810  0.21820566  0.96056892     0.08120
H168        H  0.47295791  0.18873553  0.01037241     0.06950
N169        N  0.41865713  0.11661295  0.93321617    -0.27430
N170        N  0.43310959  0.11599465  0.92238273    -0.35290
C171        C  0.44512102  0.12884270  0.92774313     0.00910
C172        C  0.43792980  0.13820362  0.94268544     0.06930
C173        C  0.42088329  0.13017600  0.94541594    -0.06170
H174        H  0.45829745  0.13094601  0.92133278     0.07600
H175        H  0.41054994  0.13385717  0.95527064     0.08800
Cu176      Cu  0.43586315  0.09776371  0.90075957     0.44170
Cu177      Cu  0.39751542  0.09765589  0.93254065     0.41990
Cu178      Cu  0.40384238  0.06018936  0.90104100     0.43880
N179        N  0.43577532  0.07707947  0.88129028    -0.34820
N180        N  0.42464724  0.06287852  0.88204549    -0.29070
C181        C  0.42891320  0.05116098  0.86855828    -0.05180
C182        C  0.44314533  0.05850811  0.85832121     0.07040
C183        C  0.44716614  0.07495740  0.86699599     0.00840
H184        H  0.42249121  0.03796602  0.86698680     0.08490
H185        H  0.45779148  0.08461495  0.86340062     0.07570
N186        N  0.38281375  0.06131080  0.91995451    -0.36270
N187        N  0.38039079  0.07501384  0.93148234    -0.28450
C188        C  0.36595624  0.07123287  0.94228876    -0.03690
C189        C  0.35878390  0.05447349  0.93710232     0.04920
C190        C  0.36994893  0.04852768  0.92300791     0.03010
H191        H  0.36117146  0.07993446  0.95325980     0.08120
H192        H  0.36922607  0.03557597  0.91590379     0.06950
N193        N  0.50658646  0.51106705  0.72313132    -0.27430
N194        N  0.49138862  0.51325234  0.71365999    -0.35290
C195        C  0.49555366  0.52135578  0.69768255     0.00910
C196        C  0.51435372  0.52464942  0.69702807     0.06930
C197        C  0.52069345  0.51816838  0.71373679    -0.06170
H198        H  0.48548486  0.52462906  0.68736568     0.07600
H199        H  0.53431164  0.51894844  0.71927876     0.08800
Cu200      Cu  0.46560893  0.50660886  0.72380125     0.44170
Cu201      Cu  0.50785297  0.49789790  0.74806743     0.41990
Cu202      Cu  0.46529429  0.49126047  0.77134439     0.43880
N203        N  0.44192071  0.50165105  0.73884637    -0.34820
N204        N  0.44190617  0.49670826  0.75626801    -0.29070
C205        C  0.42451053  0.49517008  0.76209721    -0.05180
C206        C  0.41304407  0.49932006  0.74767455     0.07040
C207        C  0.42448262  0.50322949  0.73310504     0.00840
H208        H  0.42051202  0.49101287  0.77573342     0.08490
H209        H  0.42043449  0.50707283  0.71939989     0.07570
N210        N  0.49029675  0.48343475  0.78216089    -0.36270
N211        N  0.50579523  0.48486786  0.77302624    -0.28450
C212        C  0.51931934  0.47736778  0.78292128    -0.03690
C213        C  0.51210796  0.47095596  0.79932510     0.04920
C214        C  0.49361503  0.47541287  0.79836701     0.03010
H215        H  0.53339373  0.47669619  0.77838770     0.08120
H216        H  0.48324358  0.47357691  0.80869578     0.06950
N217        N  0.98983428  0.48700211  0.22243225    -0.27430
N218        N  0.00541847  0.48220036  0.21456603    -0.35290
C219        C  0.00173402  0.47399728  0.19852435     0.00910
C220        C  0.98296222  0.47392776  0.19604077     0.06930
C221        C  0.97583377  0.48218024  0.21150407    -0.06170
H222        H  0.01195765  0.46845667  0.18935900     0.07600
H223        H  0.96152475  0.48407694  0.21481656     0.08800
Cu224      Cu  0.03100615  0.48728327  0.22580318     0.44170
Cu225      Cu  0.98827102  0.49938806  0.24789296     0.41990
Cu226      Cu  0.03137252  0.51498981  0.26674978     0.43880
N227        N  0.05480918  0.49562115  0.23885695    -0.34820
N228        N  0.05494084  0.50592866  0.25370032    -0.29070
C229        C  0.07239775  0.50909218  0.25860885    -0.05180
C230        C  0.08385517  0.50057429  0.24612901     0.07040
C231        C  0.07217833  0.49197680  0.23391996     0.00840
H232        H  0.07646078  0.51714298  0.27033538     0.08490
H233        H  0.07595229  0.48345008  0.22244255     0.07570
N234        N  0.00610632  0.51992317  0.27878900    -0.36270
N235        N  0.99052297  0.51333123  0.27247585    -0.28450
C236        C  0.97694075  0.51801755  0.28396536    -0.03690
C237        C  0.98422014  0.52819400  0.29827515     0.04920
C238        C  0.00278350  0.52933449  0.29422529     0.03010
H239        H  0.96275559  0.51432180  0.28192308     0.08120
H240        H  0.01319752  0.53686370  0.30146533     0.06950
N241        N  0.88285704  0.42310366  0.06242546    -0.27430
N242        N  0.88155369  0.43393228  0.07682617    -0.35290
C243        C  0.86777821  0.44581480  0.07404020     0.00910
C244        C  0.86003210  0.44245143  0.05698778     0.06930
C245        C  0.87029725  0.42809839  0.04997395    -0.06170
H246        H  0.86391862  0.45634237  0.08368199     0.07600
H247        H  0.86942064  0.42207054  0.03653953     0.08800
Cu248      Cu  0.89987607  0.43360590  0.09866935     0.44170
Cu249      Cu  0.90145952  0.40187902  0.05990072     0.41990
Cu250      Cu  0.93842729  0.40337509  0.09150036     0.43880
N251        N  0.92259156  0.43260503  0.11588333    -0.34820
N252        N  0.93685274  0.42198058  0.11265614    -0.29070
C253        C  0.94986185  0.42526828  0.12517698    -0.05180
C254        C  0.94346500  0.43835970  0.13728849     0.07040
C255        C  0.92614327  0.44283797  0.13077589     0.00840
H256        H  0.96326130  0.41904411  0.12486191     0.08490
H257        H  0.91690001  0.45300378  0.13627553     0.07570
N258        N  0.93642439  0.38390643  0.07118861    -0.36270
N259        N  0.92226007  0.38265192  0.06013929    -0.28450
C260        C  0.92471559  0.36827133  0.04898749    -0.03690
C261        C  0.94147904  0.36003595  0.05298752     0.04920
C262        C  0.94851060  0.37070724  0.06709026     0.03010
H263        H  0.91502290  0.36442601  0.03851989     0.08120
H264        H  0.96170353  0.36986436  0.07354190     0.06950
N265        N  0.01626710  0.22537069  0.00544074    -0.27430
N266        N  0.01934508  0.21659740  0.98992882    -0.35290
C267        C  0.02746744  0.20051361  0.99366597     0.00910
C268        C  0.02980608  0.19931734  0.01237461     0.06930
C269        C  0.02253457  0.21523844  0.01944895    -0.06170
H270        H  0.03147801  0.19051339  0.98352602     0.07600
H271        H  0.02160011  0.21904904  0.03371653     0.08800
Cu272      Cu  0.01271921  0.22712234  0.96443662     0.44170
Cu273      Cu  0.00311877  0.25034441  0.00694730     0.41990
Cu274      Cu  0.99244280  0.27245370  0.96398120     0.43880
N275        N  0.00565940  0.24103308  0.94073734    -0.34820
N276        N  0.99853436  0.25767333  0.94056564    -0.29070
C277        C  0.99585960  0.26288734  0.92312121    -0.05180
C278        C  0.00144497  0.24879543  0.91186661     0.07040
C279        C  0.00765055  0.23518850  0.92340608     0.00840
H280        H  0.99028943  0.27595243  0.91895737     0.08490
H281        H  0.01337616  0.22211262  0.91950572     0.07570
N282        N  0.98573461  0.28324758  0.98932182    -0.36270
N283        N  0.98934785  0.27494940  0.00496434    -0.28450
C284        C  0.98266594  0.28502598  0.01879190    -0.03690
C285        C  0.97431113  0.30041138  0.01154916     0.04920
C286        C  0.97676262  0.29892491  0.99280001     0.03010
H287        H  0.98371048  0.28132575  0.03308401     0.08120
H288        H  0.97263919  0.30860262  0.98240551     0.06950
N289        N  0.06394845  0.11607141  0.07195451    -0.27430
N290        N  0.07760414  0.11550148  0.06008131    -0.35290
C291        C  0.07563669  0.12920036  0.04796613     0.00910
C292        C  0.05987524  0.13864899  0.05232782     0.06930
C293        C  0.05277781  0.13002451  0.06758405    -0.06170
H294        H  0.08471241  0.13175973  0.03654651     0.07600
H295        H  0.04037424  0.13353396  0.07487417     0.08800
Cu296      Cu  0.09764189  0.09552919  0.06017446     0.44170
Cu297      Cu  0.06107045  0.09775174  0.09337954     0.41990
Cu298      Cu  0.09603201  0.06267526  0.09714194     0.43880
N299        N  0.11600423  0.07418574  0.06294509    -0.34820
N300        N  0.11572394  0.06243823  0.07667637    -0.29070
C301        C  0.12942701  0.05037177  0.07445233    -0.05180
C302        C  0.13886176  0.05472701  0.05854853     0.07040
C303        C  0.12973586  0.06979334  0.05151868     0.00840
H304        H  0.13217872  0.03911903  0.08366573     0.08490
H305        H  0.13236303  0.07673426  0.03872821     0.07570
N306        N  0.07410050  0.06513382  0.11502177    -0.36270
N307        N  0.06132981  0.07788905  0.11358583    -0.28450
C308        C  0.04880739  0.07540458  0.12685313    -0.03690
C309        C  0.05403258  0.06044580  0.13711370     0.04920
C310        C  0.07004256  0.05418697  0.12925929     0.03010
H311        H  0.03668553  0.08369924  0.12871096     0.08120
H312        H  0.07796946  0.04238296  0.13337041     0.06950
N313        N  0.00595489  0.98809209  0.27288634    -0.27430
N314        N  0.99004362  0.98448196  0.28055955    -0.35290
C315        C  0.99283874  0.97589197  0.29654179     0.00910
C316        C  0.01160620  0.97362480  0.29927574     0.06930
C317        C  0.01933579  0.98172888  0.28375526    -0.06170
H318        H  0.98167340  0.97194296  0.30504979     0.07600
H319        H  0.03365266  0.98294918  0.28031821     0.08800
Cu320      Cu  0.96495942  0.99067742  0.26898453     0.44170
Cu321      Cu  0.00862032  0.00148533  0.24799561     0.41990
Cu322      Cu  0.96574845  0.01356293  0.22557413     0.43880
N323        N  0.94151711  0.99756263  0.25468130    -0.34820
N324        N  0.94177769  0.00619654  0.23881129    -0.29070
C325        C  0.92447006  0.00879744  0.23312148    -0.05180
C326        C  0.91271007  0.00114761  0.24590607     0.07040
C327        C  0.92404966  0.99433131  0.25948126     0.00840
H328        H  0.92080354  0.01603451  0.22075672     0.08490
H329        H  0.91991475  0.98742210  0.27190871     0.07570
N330        N  0.99141045  0.01865209  0.21461857    -0.36270
N331        N  0.00700204  0.01456130  0.22285104    -0.28450
C332        C  0.02101056  0.01993910  0.21216679    -0.03690
C333        C  0.01387131  0.02747794  0.19634986     0.04920
C334        C  0.99507977  0.02656864  0.19842623     0.03010
H335        H  0.03532702  0.01831479  0.21557533     0.08120
H336        H  0.98480846  0.03154350  0.18900525     0.06950
N337        N  0.22163431  0.99073369  0.48764451    -0.27430
N338        N  0.21412499  0.00632594  0.48237852    -0.35290
C339        C  0.19881698  0.00273101  0.47282788     0.00910
C340        C  0.19647743  0.98399812  0.47233078     0.06930
C341        C  0.21116876  0.97677322  0.48179878    -0.06170
H342        H  0.18997196  0.01298728  0.46685591     0.07600
H343        H  0.21415933  0.96245337  0.48404864     0.08800
Cu344      Cu  0.22500770  0.03171389  0.48857031     0.44170
Cu345      Cu  0.24625604  0.98934032  0.50166316     0.41990
Cu346      Cu  0.27164023  0.03221085  0.50490150     0.43880
N347        N  0.23920899  0.05547662  0.49451206    -0.34820
N348        N  0.25658073  0.05579973  0.49942638    -0.29070
C349        C  0.26189240  0.07333560  0.50113862    -0.05180
C350        C  0.24713108  0.08475094  0.49717530     0.07040
C351        C  0.23290269  0.07270659  0.49338653     0.00840
H352        H  0.27557754  0.07741355  0.50500185     0.08490
H353        H  0.21878838  0.07587959  0.49055432     0.07570
N354        N  0.28181697  0.00691616  0.51324549    -0.36270
N355        N  0.27218835  0.99162459  0.51295981    -0.28450
C356        C  0.28218516  0.97811867  0.52041475    -0.03690
C357        C  0.29906471  0.98509314  0.52570413     0.04920
C358        C  0.29833759  0.00341394  0.52058801     0.03010
H359        H  0.27738725  0.96420168  0.52191313     0.08120
H360        H  0.30903964  0.01352453  0.52161190     0.06950
N361        N  0.07277462  0.93533332  0.38115572    -0.27430
N362        N  0.06068964  0.92189717  0.38167820    -0.35290
C363        C  0.04876407  0.92408521  0.36786255     0.00910
C364        C  0.05362437  0.93960154  0.35808605     0.06930
C365        C  0.06883261  0.94646330  0.36705490    -0.06170
H366        H  0.03718225  0.91521794  0.36533536     0.07600
H367        H  0.07608151  0.95901639  0.36408757     0.08800
Cu368      Cu  0.06037951  0.90181433  0.40173076     0.44170
Cu369      Cu  0.09371141  0.93826954  0.39992454     0.41990
Cu370      Cu  0.09875238  0.90196160  0.43316757     0.43880
N371        N  0.06329287  0.88341875  0.42314714    -0.34820
N372        N  0.07762070  0.88304290  0.43415010    -0.29070
C373        C  0.07542814  0.86947928  0.44638555    -0.05180
C374        C  0.05864348  0.86114435  0.44330529     0.07040
C375        C  0.05148349  0.87027134  0.42827116     0.00840
H376        H  0.08550200  0.86594709  0.45659661     0.08490
H377        H  0.03848043  0.86774886  0.42167037     0.07570
N378        N  0.11619813  0.92428251  0.43144950    -0.36270
N379        N  0.11413550  0.93766518  0.41947001    -0.28450
C380        C  0.12707610  0.95039924  0.42235885    -0.03690
C381        C  0.13801140  0.94468019  0.43672888     0.04920
C382        C  0.13054900  0.92815148  0.44228307     0.03010
H383        H  0.12801862  0.96313525  0.41488831     0.08120
H384        H  0.13510478  0.91963621  0.45349925     0.06950
N385        N  0.51237628  0.72472730  0.50611540    -0.27430
N386        N  0.51427796  0.71544078  0.49071735    -0.35290
C387        C  0.52142376  0.69894490  0.49459310     0.00910
C388        C  0.52415313  0.69771131  0.51333375     0.06930
C389        C  0.51843125  0.71445896  0.52011789    -0.06170
H390        H  0.52458199  0.68866493  0.48443457     0.07600
H391        H  0.51913460  0.71920065  0.53409446     0.08800
Cu392      Cu  0.50807528  0.72568166  0.46490373     0.44170
Cu393      Cu  0.50125260  0.75073597  0.50792252     0.41990
Cu394      Cu  0.48286985  0.76779271  0.46585895     0.43880
N395        N  0.50067941  0.73992427  0.44140676    -0.34820
N396        N  0.49112559  0.75517946  0.44196731    -0.29070
C397        C  0.48813188  0.76112909  0.42486958    -0.05180
C398        C  0.49637866  0.74917650  0.41250168     0.07040
C399        C  0.50417801  0.73583525  0.42381667     0.00840
H400        H  0.48019862  0.77311059  0.42229430     0.08490
H401        H  0.51188900  0.72391160  0.41975535     0.07570
N402        N  0.47850753  0.78023427  0.49083372    -0.36270
N403        N  0.48615765  0.77465669  0.50618538    -0.28450
C404        C  0.48141857  0.78617715  0.51970203    -0.03690
C405        C  0.47014139  0.79974228  0.51254970     0.04920
C406        C  0.46839572  0.79519091  0.49419567     0.03010
H407        H  0.48581667  0.78466370  0.53374158     0.08120
H408        H  0.45998493  0.80169615  0.48397603     0.06950
N409        N  0.41938092  0.88217864  0.56108961    -0.27430
N410        N  0.43264163  0.88140435  0.57335428    -0.35290
C411        C  0.44341392  0.86694211  0.56964570     0.00910
C412        C  0.43654107  0.85820850  0.55432502     0.06930
C413        C  0.42141267  0.86834125  0.54918765    -0.06170
H414        H  0.45573780  0.86351746  0.57709090     0.07600
H415        H  0.41271029  0.86602287  0.53744872     0.08800
Cu416      Cu  0.43587728  0.90062790  0.59391800     0.44170
Cu417      Cu  0.39939230  0.90220986  0.56065259     0.41990
Cu418      Cu  0.39812842  0.93257333  0.59945628     0.43880
N419        N  0.43494059  0.92070058  0.61390312    -0.34820
N420        N  0.42074952  0.93154907  0.61661925    -0.29070
C421        C  0.42417859  0.94236479  0.63108122    -0.05180
C422        C  0.44168761  0.93863232  0.63753199     0.07040
C423        C  0.44792482  0.92462379  0.62629495     0.00840
H424        H  0.41433622  0.95191922  0.63650595     0.08490
H425        H  0.46104944  0.91781283  0.62691267     0.07570
N426        N  0.37950351  0.93374156  0.57802906    -0.36270
N427        N  0.38026879  0.92286365  0.56363148    -0.28450
C428        C  0.36714710  0.92773226  0.55170140    -0.03690
C429        C  0.35740501  0.94226389  0.55901511     0.04920
C430        C  0.36579862  0.94579598  0.57566042     0.03010
H431        H  0.36534615  0.92152528  0.53840758     0.08120
H432        H  0.36236499  0.95651995  0.58525597     0.06950
N433        N  0.57226723  0.56290320  0.61324033    -0.27430
N434        N  0.56058636  0.57667920  0.61267943    -0.35290
C435        C  0.54835436  0.57478522  0.62628169     0.00910
C436        C  0.55218216  0.55874654  0.63564399     0.06930
C437        C  0.56761782  0.55172689  0.62709092    -0.06170
H438        H  0.53762451  0.58454433  0.62914093     0.07600
H439        H  0.57479282  0.53923321  0.63048128     0.08800
Cu440      Cu  0.56103178  0.59683657  0.59285026     0.44170
Cu441      Cu  0.59386928  0.55995138  0.59507645     0.41990
Cu442      Cu  0.59978762  0.59686969  0.56228504     0.43880
N443        N  0.56413571  0.61518975  0.57155258    -0.34820
N444        N  0.57879422  0.61588868  0.56102182    -0.29070
C445        C  0.57682558  0.62958636  0.54891062    -0.05180
C446        C  0.55976220  0.63760885  0.55147805     0.07040
C447        C  0.55225945  0.62812466  0.56615648     0.00840
H448        H  0.58730306  0.63339227  0.53923230     0.08490
H449        H  0.53899036  0.63023521  0.57237292     0.07570
N450        N  0.61652873  0.57401164  0.56352801    -0.36270
N451        N  0.61418367  0.56042009  0.57526453    -0.28450
C452        C  0.62666624  0.54733471  0.57184643    -0.03690
C453        C  0.63730003  0.55301474  0.55729433     0.04920
C454        C  0.63060147  0.56996338  0.55236351     0.03010
H455        H  0.62782659  0.53460412  0.57931167     0.08120
H456        H  0.63536514  0.57855963  0.54128814     0.06950
N457        N  0.56583348  0.38074728  0.92192981    -0.27430
N458        N  0.57891128  0.38197453  0.93438466    -0.35290
C459        C  0.57656232  0.36867465  0.94688864     0.00910
C460        C  0.56133876  0.35863586  0.94200899     0.06930
C461        C  0.55479111  0.36664406  0.92620705    -0.06170
H462        H  0.58510502  0.36667605  0.95880236     0.07600
H463        H  0.54275352  0.36270731  0.91855174     0.08800
Cu464      Cu  0.59891448  0.40208436  0.93446078     0.44170
Cu465      Cu  0.56309028  0.39867277  0.90008960     0.41990
Cu466      Cu  0.59535935  0.43611872  0.89895485     0.43880
N467        N  0.61663165  0.42410089  0.93202114    -0.34820
N468        N  0.61528023  0.43652366  0.91895628    -0.29070
C469        C  0.62838651  0.44919834  0.92127642    -0.05180
C470        C  0.63834127  0.44469215  0.93672222     0.07040
C471        C  0.63066091  0.42856212  0.94304852     0.00840
H472        H  0.63052289  0.46075840  0.91228581     0.08490
H473        H  0.63476132  0.42081972  0.95497844     0.07770
N474        N  0.57420595  0.43316424  0.88049266    -0.36270
N475        N  0.56266937  0.41925815  0.88055450    -0.28450
C476        C  0.55059887  0.42150335  0.86687189    -0.03690
C477        C  0.55473242  0.43761913  0.85770527     0.04920
C478        C  0.56966781  0.44473168  0.86695657     0.03010
H479        H  0.53945260  0.41219856  0.86400617     0.08120
H480        H  0.57636738  0.45770287  0.86461742     0.06950
N481        N  0.52364530  0.23552626  0.25528578    -0.27430
N482        N  0.53291539  0.23365157  0.23988903    -0.35290
C483        C  0.54908943  0.22567750  0.24355453     0.00910
C484        C  0.54989978  0.22182116  0.26214080     0.06930
C485        C  0.53353259  0.22851479  0.26910139    -0.06170
H486        H  0.55949821  0.22321954  0.23335747     0.07600
H487        H  0.52899106  0.22816014  0.28318298     0.08800
Cu488      Cu  0.52262063  0.24082778  0.21443624     0.44170
Cu489      Cu  0.49817315  0.24785397  0.25690268     0.41990
Cu490      Cu  0.47813209  0.26258484  0.21398488     0.43880
N491        N  0.50858413  0.24739157  0.19065448    -0.34820
N492        N  0.49242759  0.25554434  0.19047392    -0.29070
C493        C  0.48711443  0.25792122  0.17301529    -0.05180
C494        C  0.50060611  0.25097205  0.16166195     0.07040
C495        C  0.51390818  0.24422719  0.17332367     0.00840
H496        H  0.47423922  0.26396874  0.16892113     0.08490
H497        H  0.52659348  0.23762271  0.16948768     0.07570
N498        N  0.46628388  0.26723997  0.23936841    -0.36270
N499        N  0.47345223  0.26157869  0.25498174    -0.28450
C500        C  0.46235919  0.26649024  0.26882001    -0.03690
C501        C  0.44745909  0.27561382  0.26155121     0.04920
C502        C  0.45048325  0.27601089  0.24287620     0.03010
H503        H  0.46511676  0.26388086  0.28312221     0.08120
H504        H  0.44176764  0.28210693  0.23258407     0.06950
N505        N  0.26266359  0.74041548  0.02287159    -0.27430
N506        N  0.26611398  0.75599064  0.03138204    -0.35290
C507        C  0.27401328  0.75229806  0.04758887     0.00910
C508        C  0.27555579  0.73350062  0.04935503     0.06930
C509        C  0.26838797  0.72642436  0.03335560    -0.06170
H510        H  0.27868221  0.76255999  0.05716226     0.07600
H511        H  0.26738195  0.71214235  0.02961460     0.08800
Cu512      Cu  0.26031958  0.78155156  0.02036706     0.44170
Cu513      Cu  0.25019231  0.73876659  0.99750235     0.41990
Cu514      Cu  0.23401231  0.78144635  0.97837827     0.43880
N515        N  0.25240855  0.80516451  0.00664634    -0.34820
N516        N  0.24233236  0.80510374  0.99164855    -0.29070
C517        C  0.23927686  0.82246696  0.98638044    -0.05180
C518        C  0.24819275  0.83412255  0.99840473     0.07040
C519        C  0.25618798  0.82258334  0.01119416     0.00840
H520        H  0.23087169  0.82619245  0.97481438     0.08490
H521        H  0.26430315  0.82654853  0.02290949     0.07570
N522        N  0.22989499  0.75616910  0.96616896    -0.36270
N523        N  0.23631569  0.74064483  0.97288954    -0.28450
C524        C  0.23187528  0.72688124  0.96153460    -0.03690
C525        C  0.22218714  0.73411543  0.94699999     0.04920
C526        C  0.22103163  0.75267178  0.95043587     0.03010
H527        H  0.23514326  0.71263660  0.96387514     0.08120
H528        H  0.21435651  0.76288696  0.94205906     0.06950
N529        N  0.24027053  0.52380076  0.76097066    -0.27430
N530        N  0.25601446  0.53192435  0.76469003    -0.35290
C531        C  0.25257476  0.54804865  0.77288601     0.00910
C532        C  0.23379032  0.55030116  0.77404324     0.06930
C533        C  0.22643004  0.53461190  0.76648082    -0.06170
H534        H  0.26296869  0.55748516  0.77756996     0.07600
H535        H  0.21208031  0.53113046  0.76537918     0.08800
Cu536      Cu  0.28144926  0.52075245  0.75833074     0.44170
Cu537      Cu  0.23809781  0.49822430  0.74897200     0.41990
Cu538      Cu  0.28045215  0.47508367  0.73895741     0.43880
N539        N  0.30479106  0.50588715  0.75155512    -0.34820
N540        N  0.30433454  0.48889982  0.74546547    -0.29070
C541        C  0.32155186  0.48277059  0.74336817    -0.05180
C542        C  0.33365803  0.49675768  0.74773545     0.07040
C543        C  0.32236764  0.51114832  0.75305410     0.00840
H544        H  0.32472502  0.46893506  0.73938739     0.08490
H545        H  0.32657093  0.52457398  0.75761702     0.07570
N546        N  0.25498538  0.46475752  0.73197736    -0.36270
N547        N  0.23942081  0.47301481  0.73611967    -0.28450
C548        C  0.22537722  0.46282505  0.72999792    -0.03690
C549        C  0.23250414  0.44753250  0.72148961     0.04920
C550        C  0.25128801  0.44922080  0.72284769     0.03010
H551        H  0.21108143  0.46644882  0.73132996     0.08120
H552        H  0.26149590  0.43983681  0.71766379     0.06950
N553        N  0.17385912  0.63202608  0.81355352    -0.27430
N554        N  0.18752184  0.63491103  0.82501863    -0.35290
C555        C  0.20069257  0.62244508  0.82204760     0.00910
C556        C  0.19496497  0.61055240  0.80841605     0.06930
C557        C  0.17788966  0.61729863  0.80325432    -0.06170
H558        H  0.21371199  0.62268282  0.82897871     0.07600
H559        H  0.16904901  0.61201813  0.79264259     0.08800
Cu560      Cu  0.18795237  0.65519520  0.84475499     0.44170
Cu561      Cu  0.15119014  0.64934571  0.81139778     0.41990
Cu562      Cu  0.15407311  0.68973037  0.84043068     0.43880
N563        N  0.18514781  0.67625172  0.86345340    -0.34820
N564        N  0.17282127  0.68930232  0.86157485    -0.29070
C565        C  0.17476413  0.70144107  0.87522701    -0.05180
C566        C  0.18884590  0.69560018  0.88653006     0.07040
C567        C  0.19518901  0.67961701  0.87847861     0.00840
H568        H  0.16693484  0.71393110  0.87631352     0.08490
H569        H  0.20645486  0.67117173  0.88304484     0.07570
N570        N  0.13474066  0.68624656  0.82010639    -0.36270
N571        N  0.13282149  0.67124274  0.81026763    -0.28450
C572        C  0.11834772  0.67341745  0.79909162    -0.03690
C573        C  0.11075942  0.69072242  0.80189128     0.04920
C574        C  0.12192607  0.69844546  0.81517968     0.03010
H575        H  0.11385360  0.66311507  0.78949639     0.08120
H576        H  0.12155984  0.71213538  0.82057158     0.06950
N577        N  0.26070464  0.25725297  0.47175983    -0.27430
N578        N  0.26599868  0.24155642  0.46450762    -0.35290
C579        C  0.27461894  0.24492648  0.44859149     0.00910
C580        C  0.27444948  0.26360230  0.44557268     0.06930
C581        C  0.26563460  0.27101705  0.46057729    -0.06170
H582        H  0.28046221  0.23455020  0.43980677     0.07600
H583        H  0.26326543  0.28536201  0.46333315     0.08800
Cu584      Cu  0.26093443  0.21630493  0.47646134     0.44170
Cu585      Cu  0.24750079  0.25925559  0.49673884     0.41990
Cu586      Cu  0.23947185  0.21681797  0.52125330     0.43880
N587        N  0.25399193  0.19285572  0.49090351    -0.34820
N588        N  0.24646164  0.19300323  0.50737285    -0.29070
C589        C  0.24375966  0.17563364  0.51288724    -0.05180
C590        C  0.24983590  0.16409337  0.49920438     0.07040
C591        C  0.25614074  0.17541327  0.48544331     0.00840
H592        H  0.23757108  0.17171047  0.52575317     0.08490
H593        H  0.26183788  0.17128959  0.47242051     0.07570
N594        N  0.23244473  0.24246821  0.53131467    -0.36270
N595        N  0.23500940  0.25785354  0.52212366    -0.28450
C596        C  0.22827240  0.27190059  0.53189249    -0.03690
C597        C  0.22116373  0.26502741  0.54800328     0.04920
C598        C  0.22415727  0.24636455  0.54729638     0.03010
H599        H  0.22856063  0.28606260  0.52759283     0.08120
H600        H  0.22025532  0.23632840  0.55745977     0.06950
N601        N  0.18259019  0.32517945  0.62891280    -0.27430
N602        N  0.16843167  0.31390976  0.62850657    -0.35290
C603        C  0.17082369  0.30181286  0.61484817     0.00910
C604        C  0.18734665  0.30559350  0.60644258     0.06930
C605        C  0.19444441  0.32047698  0.61564658    -0.06170
H606        H  0.16156415  0.29070157  0.61171083     0.07600
H607        H  0.20738943  0.32720157  0.61309032     0.08800
Cu608      Cu  0.14742402  0.31450665  0.64760340     0.44170
Cu609      Cu  0.18550863  0.34605362  0.64780808     0.41990
Cu610      Cu  0.15064458  0.34960625  0.68266268     0.43880
N611        N  0.12984893  0.31632886  0.66982503    -0.34820
N612        N  0.13129502  0.32884011  0.68281436    -0.29070
C613        C  0.11867069  0.32548949  0.69580007    -0.05180
C614        C  0.10880565  0.31022744  0.69064163     0.07040
C615        C  0.11613897  0.30480363  0.67410412     0.00840
H616        H  0.11689196  0.33348869  0.70811874     0.08490
H617        H  0.11213230  0.29308218  0.66601793     0.07570
N618        N  0.17225264  0.36784212  0.68013822    -0.36270
N619        N  0.18522008  0.36625189  0.66763912    -0.28450
C620        C  0.19781426  0.37938425  0.67029748    -0.03690
C621        C  0.19239675  0.39003818  0.68501963     0.04920
C622        C  0.17617370  0.38215494  0.69098697     0.03010
H623        H  0.21034901  0.38050279  0.66251884     0.08120
H624        H  0.16797254  0.38629662  0.70259382     0.06950
N625        N  0.25604724  0.47334213  0.26075947    -0.27430
N626        N  0.24029040  0.46578548  0.26548617    -0.35290
C627        C  0.24363641  0.44997917  0.27430061     0.00910
C628        C  0.26237630  0.44770727  0.27533373     0.06930
C629        C  0.26986051  0.46269533  0.26661749    -0.06170
H630        H  0.23322688  0.44088608  0.27961775     0.07600
H631        H  0.28423838  0.46554961  0.26449977     0.08800
Cu632      Cu  0.21509751  0.47763420  0.26003882     0.44170
Cu633      Cu  0.25800514  0.49759929  0.24636705     0.41990
Cu634      Cu  0.21592021  0.52243612  0.23820587     0.43880
N635        N  0.19180271  0.49235122  0.25327389    -0.34820
N636        N  0.19202353  0.50844032  0.24497000    -0.29070
C637        C  0.17465442  0.51382378  0.24197281    -0.05180
C638        C  0.16300972  0.50065804  0.24903598     0.07040
C639        C  0.17433267  0.48721282  0.25601167     0.00840
H640        H  0.17078367  0.52644398  0.23527561     0.08490
H641        H  0.17018962  0.47447475  0.26232153     0.07570
N642        N  0.24178971  0.53248567  0.23170477    -0.36270
N643        N  0.25695034  0.52289220  0.23378648    -0.28450
C644        C  0.27116768  0.53246939  0.22713593    -0.03690
C645        C  0.26488913  0.54932493  0.22103175     0.04920
C646        C  0.24607381  0.54866905  0.22405940     0.03010
H647        H  0.28487804  0.52706502  0.22636024     0.08120
H648        H  0.23612032  0.55913883  0.22086877     0.06950
N649        N  0.74071416  0.97648575  0.22998663    -0.27430
N650        N  0.75603816  0.96695703  0.22916291    -0.35290
C651        C  0.75223782  0.95014881  0.22280418     0.00910
C652        C  0.73356468  0.94898602  0.21942024     0.06930
C653        C  0.72680518  0.96612900  0.22391475    -0.06170
H654        H  0.76239074  0.93957424  0.22077427     0.07600
H655        H  0.71294465  0.97104886  0.22250866     0.08800
Cu656      Cu  0.78141552  0.97758962  0.23600626     0.44170
Cu657      Cu  0.73910849  0.00257843  0.24062962     0.41990
Cu658      Cu  0.78068113  0.02106290  0.25992301     0.43880
N659        N  0.80477377  0.99190671  0.24331259    -0.34820
N660        N  0.80452325  0.00759592  0.25230551    -0.29070
C661        C  0.82185141  0.01310410  0.25517830    -0.05180
C662        C  0.83354292  0.00024160  0.24766910     0.07040
C663        C  0.82225476  0.98710177  0.24008625     0.00840
H664        H  0.82563859  0.02565354  0.26203437     0.08490
H665        H  0.82644013  0.97482759  0.23295729     0.07570
N666        N  0.75489885  0.03216271  0.26440514    -0.36270
N667        N  0.73986849  0.02578831  0.25667398    -0.28450
C668        C  0.72552621  0.03602004  0.26191858    -0.03690
C669        C  0.73167933  0.04932433  0.27392162     0.04920
C670        C  0.75045999  0.04654960  0.27496020     0.03010
H671        H  0.71174352  0.03399827  0.25698608     0.08120
H672        H  0.76020954  0.05435874  0.28288780     0.06950
N673        N  0.47271940  0.73603497  0.23966938    -0.27430
N674        N  0.46434205  0.73195499  0.25517471    -0.35290
C675        C  0.44877518  0.72288388  0.25135329     0.00910
C676        C  0.44756676  0.72090729  0.23256879     0.06930
C677        C  0.46290448  0.72948686  0.22559010    -0.06170
H678        H  0.43922948  0.71782276  0.26148352     0.07600
H679        H  0.46658689  0.73101741  0.21133401     0.08800
Cu680      Cu  0.47524580  0.73815135  0.28064498     0.44170
Cu681      Cu  0.49706798  0.75027244  0.23830612     0.41990
Cu682      Cu  0.52115432  0.75824309  0.28055269     0.43880
N683        N  0.49000210  0.74435828  0.30410388    -0.34820
N684        N  0.50666203  0.75149999  0.30409640    -0.29070
C685        C  0.51220326  0.75373491  0.32150636    -0.05180
C686        C  0.49841831  0.74762622  0.33291594     0.07040
C687        C  0.48452810  0.74186364  0.32150429     0.00840
H688        H  0.52521577  0.75951971  0.32554467     0.08490
H689        H  0.47138930  0.73634276  0.32553568     0.07570
N690        N  0.53165026  0.76490618  0.25496783    -0.36270
N691        N  0.52230158  0.76285509  0.23970397    -0.28450
C692        C  0.53212455  0.76941125  0.22563687    -0.03690
C693        C  0.54898054  0.77547909  0.23208066     0.04920
C694        C  0.54794059  0.77242794  0.25091615     0.03010
H695        H  0.52674417  0.77000176  0.21198156     0.08120
H696        H  0.55822333  0.77537213  0.26110832     0.06950
N697        N  0.73482496  0.75636454  0.02136502    -0.27430
N698        N  0.73290921  0.74056884  0.02992190    -0.35290
C699        C  0.72529686  0.74352121  0.04639132     0.00910
C700        C  0.72162130  0.76206565  0.04817767     0.06930
C701        C  0.72808809  0.76974100  0.03201771    -0.06170
H702        H  0.72311827  0.73285109  0.05636212     0.07600
H703        H  0.72790945  0.78403234  0.02818697     0.08800
Cu704      Cu  0.73965197  0.71551631  0.01856253     0.44170
Cu705      Cu  0.74737617  0.75913922  0.99605623     0.41990
Cu706      Cu  0.76206379  0.71677556  0.97474526     0.43880
N707        N  0.74625515  0.69226554  0.00378794    -0.34820
N708        N  0.75490493  0.69271690  0.98792912    -0.29070
C709        C  0.75754601  0.67549691  0.98204916    -0.05180
C710        C  0.74979328  0.66354894  0.99461358     0.07040
C711        C  0.74293097  0.67475081  0.00830836     0.00840
H712        H  0.76495335  0.67205985  0.96972807     0.08490
H713        H  0.73595833  0.67049767  0.02066007     0.07570
N714        N  0.76664091  0.74245512  0.96363355    -0.36270
N715        N  0.76148567  0.75792677  0.97145372    -0.28450
C716        C  0.76693673  0.77203761  0.96095320    -0.03690
C717        C  0.77565157  0.76508108  0.94565490     0.04920
C718        C  0.77533803  0.74629358  0.94788250     0.03010
H719        H  0.76466362  0.78630009  0.96417904     0.08120
H720        H  0.78132224  0.73615017  0.93892493     0.06950
N721        N  0.67141236  0.81004377  0.13200683    -0.27430
N722        N  0.68515318  0.82175834  0.13203398    -0.35290
C723        C  0.69688260  0.81742848  0.11857880     0.00910
C724        C  0.68996557  0.80256600  0.10904615     0.06930
C725        C  0.67382267  0.79818421  0.11816770    -0.06170
H726        H  0.70976922  0.82433761  0.11650181     0.07600
H727        H  0.66452947  0.78708655  0.11511277     0.08800
Cu728      Cu  0.68734275  0.84338015  0.14998069     0.44170
Cu729      Cu  0.65100965  0.81002503  0.15181003     0.41990
Cu730      Cu  0.65484704  0.84569764  0.18664321     0.43880
N731        N  0.68771969  0.86347975  0.16972714    -0.34820
N732        N  0.67636016  0.86386667  0.18375274    -0.29070
C733        C  0.68116055  0.87765688  0.19489558    -0.05180
C734        C  0.69631638  0.88646141  0.18750356     0.07040
C735        C  0.69977000  0.87724295  0.17129164     0.00840
H736        H  0.67422670  0.88085056  0.20757360     0.08490
H737        H  0.71003206  0.88029474  0.16111296     0.07570
N738        N  0.63489262  0.82562201  0.18656197    -0.36270
N739        N  0.63369244  0.81246093  0.17423363    -0.28450
C740        C  0.61975985  0.80133201  0.17879063    -0.03690
C741        C  0.61182408  0.80773721  0.19479600     0.04920
C742        C  0.62163631  0.82335724  0.19910768     0.03010
H743        H  0.61582236  0.78932988  0.17109066     0.08120
H744        H  0.61924514  0.83264857  0.21034666     0.06950
N745        N  0.68413785  0.13137017  0.32641630    -0.27430
N746        N  0.67055465  0.12913883  0.31468475    -0.35290
C747        C  0.67462311  0.11505881  0.30353622     0.00910
C748        C  0.69166566  0.10834022  0.30839332     0.06930
C749        C  0.69716258  0.11885056  0.32308448    -0.06170
H750        H  0.66611135  0.11046116  0.29234294     0.07600
H751        H  0.70979432  0.11765105  0.33070023     0.08800
Cu752      Cu  0.64795951  0.14639449  0.31353158     0.44170
Cu753      Cu  0.68518822  0.15177781  0.34588105     0.41990
Cu754      Cu  0.64817005  0.18377146  0.34649020     0.43880
N755        N  0.62919766  0.16778008  0.31351417    -0.34820
N756        N  0.62989197  0.18174307  0.32494347    -0.29070
C757        C  0.61716071  0.19410621  0.32013332    -0.05180
C758        C  0.60747085  0.18745335  0.30522870     0.07040
C759        C  0.61569408  0.17073596  0.30138507     0.00840
H760        H  0.61578012  0.20727717  0.32664646     0.08490
H761        H  0.61236233  0.16146734  0.29035790     0.07570
N762        N  0.66891753  0.18369571  0.36576545    -0.36270
N763        N  0.68308884  0.17257356  0.36484234    -0.28450
C764        C  0.69517790  0.17708312  0.37790731    -0.03690
C765        C  0.68807662  0.19147623  0.38809479     0.04920
C766        C  0.67136420  0.19528911  0.37979154     0.03010
H767        H  0.70846445  0.17078146  0.37908438     0.08120
H768        H  0.66177385  0.20597144  0.38334881     0.06950
N769        N  0.97379105  0.76307661  0.75581852    -0.27430
N770        N  0.96530967  0.76719166  0.74037776    -0.35290
C771        C  0.94957179  0.77591278  0.74434164     0.00910
C772        C  0.94828482  0.77763118  0.76314393     0.06930
C773        C  0.96379485  0.76922823  0.76998716    -0.06170
H774        H  0.93996866  0.78096594  0.73427784     0.07600
H775        H  0.96751187  0.76760890  0.78421768     0.08800
Cu776      Cu  0.97596418  0.76152104  0.71463449     0.44170
Cu777      Cu  0.99858158  0.74935703  0.75709384     0.41990
Cu778      Cu  0.01990444  0.73832273  0.71391972     0.43880
N779        N  0.98987239  0.75470685  0.69078000    -0.34820
N780        N  0.00566003  0.74584172  0.69055251    -0.29070
C781        C  0.01072786  0.74302007  0.67308454    -0.05180
C782        C  0.99768161  0.75076512  0.66179886     0.07040
C783        C  0.98461685  0.75799643  0.67344428     0.00840
H784        H  0.02308718  0.73601589  0.66891109     0.08490
H785        H  0.97208917  0.76488548  0.66960380     0.07570
N786        N  0.03137777  0.73205498  0.73910430    -0.36270
N787        N  0.02342274  0.73584105  0.75488765    -0.28450
C788        C  0.03409730  0.72975695  0.76857008    -0.03690
C789        C  0.04951892  0.72161497  0.76108146     0.04920
C790        C  0.04740030  0.72358503  0.74233177     0.03010
H791        H  0.03081786  0.73111039  0.78293932     0.08120
H792        H  0.05692083  0.71954544  0.73175562     0.06950
N793        N  0.76418929  0.24086816  0.52064195    -0.27430
N794        N  0.76666893  0.25632303  0.52960656    -0.35290
C795        C  0.77401106  0.25254607  0.54601450     0.00910
C796        C  0.77639857  0.23374017  0.54750435     0.06930
C797        C  0.77026184  0.22688242  0.53090476    -0.06170
H798        H  0.77735907  0.26282498  0.55610118     0.07600
H799        H  0.77055550  0.21289347  0.52621620     0.08800
Cu800      Cu  0.76083546  0.28181142  0.51863989     0.44170
Cu801      Cu  0.75170124  0.23945066  0.49536423     0.41990
Cu802      Cu  0.74062826  0.28237281  0.47321036     0.43880
N803        N  0.75443357  0.30553625  0.50447830    -0.34820
N804        N  0.74693914  0.30577576  0.48803014    -0.29070
C805        C  0.74416235  0.32325533  0.48299812    -0.05180
C806        C  0.75009004  0.33460445  0.49697952     0.07040
C807        C  0.75676965  0.32283567  0.51025894     0.00840
H808        H  0.73809458  0.32739657  0.47015229     0.08490
H809        H  0.76316655  0.32647963  0.52307444     0.07570
N810        N  0.73396214  0.25690377  0.46254895    -0.36270
N811        N  0.73747331  0.24135182  0.47104552    -0.28450
C812        C  0.73046145  0.22745987  0.46131799    -0.03690
C813        C  0.72210109  0.23449471  0.44581649     0.04920
C814        C  0.72489867  0.25325821  0.44696496     0.03010
H815        H  0.73130679  0.21325333  0.46537497     0.08120
H816        H  0.72102053  0.26358367  0.43713556     0.06950
N817        N  0.02461508  0.26030368  0.73758750    -0.27430
N818        N  0.03296821  0.26474932  0.75295901    -0.35290
C819        C  0.04834197  0.27403769  0.74894997     0.00910
C820        C  0.04968367  0.27564668  0.73010480     0.06930
C821        C  0.03450583  0.26649380  0.72336412    -0.06170
H822        H  0.05773125  0.27942771  0.75903387     0.07600
H823        H  0.03094216  0.26424927  0.70919618     0.08800
Cu824      Cu  0.02275854  0.25810666  0.77852540     0.44170
Cu825      Cu  0.99976127  0.24677955  0.73685081     0.41990
Cu826      Cu  0.97829911  0.23598664  0.78063640     0.43880
N827        N  0.00957654  0.25128905  0.80265052    -0.34820
N828        N  0.99318875  0.24381649  0.80359147    -0.29070
C829        C  0.98854644  0.24200039  0.82129971    -0.05180
C830        C  0.00276686  0.24854893  0.83229540     0.07040
C831        C  0.01590919  0.25413766  0.81963219     0.00840
H832        H  0.97562503  0.23629981  0.82566388     0.08490
H833        H  0.02928840  0.25957770  0.82194583     0.07570
N834        N  0.96695455  0.22967164  0.75531365    -0.36270
N835        N  0.97463347  0.23399544  0.73948443    -0.28450
C836        C  0.96363815  0.22860233  0.72577535    -0.03690
C837        C  0.94847228  0.22027512  0.73333098     0.04920
C838        C  0.95094131  0.22116837  0.75205225     0.03010
H839        H  0.96654210  0.23049766  0.71138449     0.08120
H840        H  0.94169517  0.21622162  0.76251034     0.06950
N841        N  0.75645739  0.02445285  0.73591568    -0.27430
N842        N  0.74111734  0.03131638  0.72934674    -0.35290
C843        C  0.74506427  0.04669332  0.72005548     0.00910
C844        C  0.76387169  0.04986391  0.72089460     0.06930
C845        C  0.77045630  0.03548952  0.73146223    -0.06170
H846        H  0.73486111  0.05492212  0.71321010     0.07600
H847        H  0.78418762  0.03319521  0.73625560     0.08800
Cu848      Cu  0.71553593  0.01990338  0.73442754     0.44170
Cu849      Cu  0.75809795  0.99981690  0.74963290     0.41990
Cu850      Cu  0.71598293  0.97601944  0.75831636     0.43880
N851        N  0.69211656  0.00588750  0.74254595    -0.34820
N852        N  0.69235083  0.98980054  0.75081707    -0.29070
C853        C  0.67504652  0.98438656  0.75395759    -0.05180
C854        C  0.66325586  0.99787228  0.74774923     0.07040
C855        C  0.67461550  0.01120174  0.74040711     0.00840
H856        H  0.67143064  0.97139244  0.76002212     0.08490
H857        H  0.67046955  0.02391565  0.73406017     0.07570
N858        N  0.74143244  0.96576476  0.76551775    -0.36270
N859        N  0.75691873  0.97438868  0.76188027    -0.28450
C860        C  0.77104836  0.96423378  0.76782678    -0.03690
C861        C  0.76407835  0.94865067  0.77591140     0.04920
C862        C  0.74527176  0.94998027  0.77417773     0.03010
H863        H  0.78530535  0.96805767  0.76662460     0.08120
H864        H  0.73516158  0.94016464  0.77873324     0.06950
N865        N  0.86548825  0.18443996  0.67361767    -0.27430
N866        N  0.86353576  0.17233209  0.68690914    -0.35290
C867        C  0.87630122  0.17548060  0.69976660     0.00910
C868        C  0.88664883  0.19044085  0.69442683     0.06930
C869        C  0.87952397  0.19561571  0.67765789    -0.06170
H870        H  0.87777239  0.16761671  0.71222132     0.07600
H871        H  0.88425000  0.20656859  0.66889878     0.08800
Cu872      Cu  0.84327600  0.15247171  0.68719606     0.44170
Cu873      Cu  0.84842739  0.18593508  0.65107780     0.41990
Cu874      Cu  0.80897143  0.15615788  0.65157789     0.43880
N875        N  0.82124326  0.13478427  0.68462252    -0.34820
N876        N  0.80870466  0.13619209  0.67166952    -0.29070
C877        C  0.79614697  0.12294824  0.67399363    -0.05180
C878        C  0.80088868  0.11283803  0.68928273     0.07040
C879        C  0.81699554  0.12058719  0.69553206     0.00840
H880        H  0.78453468  0.12078298  0.66508810     0.08490
H881        H  0.82489831  0.11638688  0.70731812     0.07570
N882        N  0.81266905  0.17701827  0.63277420    -0.36270
N883        N  0.82746735  0.18736562  0.63211075    -0.28450
C884        C  0.82588003  0.19925534  0.61817797    -0.03690
C885        C  0.80900413  0.19664253  0.60988786     0.04920
C886        C  0.80113515  0.18224095  0.61945596     0.03010
H887        H  0.83645734  0.20883511  0.61433072     0.08120
H888        H  0.78788986  0.17608082  0.61706137     0.06950
N889        N  0.86775124  0.83000317  0.81253921    -0.27430
N890        N  0.86744512  0.81584571  0.82381474    -0.35290
C891        C  0.88052711  0.80389915  0.81881449     0.00910
C892        C  0.88945505  0.81093748  0.80371908     0.06930
C893        C  0.88108415  0.82747942  0.80008625    -0.06170
H894        H  0.88318450  0.79097777  0.82552816     0.07600
H895        H  0.88416451  0.83678047  0.78898570     0.08800
Cu896      Cu  0.84886879  0.81311726  0.84506726     0.44170
Cu897      Cu  0.84912009  0.85136944  0.81374067     0.41990
Cu898      Cu  0.81238144  0.84658237  0.84677448     0.43880
N899        N  0.82858072  0.81326375  0.86487991    -0.34820
N900        N  0.81531360  0.82555994  0.86559362    -0.29070
C901        C  0.80416571  0.82155651  0.87969450    -0.05180
C902        C  0.81080482  0.80605542  0.88821074     0.07040
C903        C  0.82618684  0.80105617  0.87844483     0.00840
H904        H  0.79186236  0.82903879  0.88313821     0.08490
H905        H  0.83474894  0.78920479  0.88074868     0.07570
N906        N  0.81291654  0.86645522  0.82653749    -0.36270
N907        N  0.82669841  0.86870171  0.81504923    -0.28450
C908        C  0.82294020  0.88279396  0.80384632    -0.03690
C909        C  0.80567366  0.88949298  0.80808821     0.04920
C910        C  0.79989432  0.87887503  0.82274458     0.03010
H911        H  0.83229352  0.88776329  0.79353913     0.08120
H912        H  0.78700393  0.87987150  0.82996722     0.06950
N913        N  0.32431318  0.63147967  0.18140335    -0.27430
N914        N  0.31330877  0.63124014  0.16708257    -0.35290
C915        C  0.30093788  0.61779486  0.16924214     0.00910
C916        C  0.30394009  0.60939089  0.18599681     0.06930
C917        C  0.31906710  0.61834837  0.19317554    -0.06170
H918        H  0.29067442  0.61439970  0.15917778     0.07600
H919        H  0.32562461  0.61574325  0.20618029     0.08800
Cu920      Cu  0.31451692  0.65019054  0.14601473     0.44170
Cu921      Cu  0.34579874  0.64978296  0.18435469     0.41990
Cu922      Cu  0.34886245  0.68557594  0.15008552     0.43880
N923        N  0.31641907  0.67234185  0.12839436    -0.34820
N924        N  0.32887171  0.68538204  0.12998279    -0.29070
C925        C  0.32583221  0.69820009  0.11712377    -0.05180
C926        C  0.31082468  0.69287562  0.10697209     0.07040
C927        C  0.30512996  0.67649560  0.11447033     0.00840
H928        H  0.33375049  0.71060283  0.11550240     0.08490
H929        H  0.29341385  0.66841994  0.11039849     0.07570
N930        N  0.36688772  0.68299460  0.17181456    -0.36270
N931        N  0.36585257  0.66986203  0.18423777    -0.28450
C932        C  0.37917317  0.67232737  0.19668517    -0.03690
C933        C  0.38896598  0.68773707  0.19183469     0.04920
C934        C  0.38084565  0.69421258  0.17606547     0.03010
H935        H  0.38125301  0.66382950  0.20862466     0.08120
H936        H  0.38454653  0.70636946  0.16846791     0.06950
N937        N  0.31967510  0.36290727  0.30962364    -0.27430
N938        N  0.30919092  0.36375615  0.32436016    -0.35290
C939        C  0.29758032  0.37794510  0.32261018     0.00910
C940        C  0.30081219  0.38620186  0.30588989     0.06930
C941        C  0.31497230  0.37641799  0.29808141    -0.06170
H942        H  0.28722127  0.38164905  0.33252115     0.07600
H943        H  0.32135234  0.37887736  0.28494754     0.08800
Cu944      Cu  0.31035793  0.34484198  0.34554532     0.44170
Cu945      Cu  0.33989928  0.34354523  0.30556924     0.41990
Cu946      Cu  0.34498043  0.30951153  0.34053757     0.43880
N947        N  0.31294430  0.32261653  0.36307536    -0.34820
N948        N  0.32505094  0.30940579  0.36072205    -0.29070
C949        C  0.32238623  0.29646687  0.37351209    -0.05180
C950        C  0.30823012  0.30196269  0.38492488     0.07040
C951        C  0.30247536  0.31856351  0.37766697     0.00840
H952        H  0.32991560  0.28376900  0.37393967     0.08490
H953        H  0.29139182  0.32707415  0.38254600     0.07570
N954        N  0.36320565  0.31254282  0.31901931    -0.36270
N955        N  0.36079164  0.32447956  0.30569920    -0.28450
C956        C  0.37412793  0.32237133  0.29321394    -0.03690
C957        C  0.38595750  0.30874146  0.29916122     0.04920
C958        C  0.37839496  0.30276587  0.31556791     0.03010
H959        H  0.37459556  0.32985352  0.28049471     0.08120
H960        H  0.38342169  0.29195349  0.32432923     0.06950
C961        C  0.76386853  0.08138108  0.70780150    -0.09300
C962        C  0.77399816  0.06573658  0.71277953     0.06900
C963        C  0.79320951  0.06593070  0.70959391    -0.03070
C964        C  0.80154766  0.08152283  0.70221104    -0.07520
C965        C  0.79127728  0.09687312  0.69715049     0.06010
C966        C  0.77221169  0.09667591  0.69990317    -0.02540
Br967      Br  0.75684764  0.11723464  0.69428216    -0.02240
H968        H  0.74928561  0.08199398  0.71022350     0.09920
H969        H  0.81620348  0.08146022  0.69989161     0.07940
Br970      Br  0.80932987  0.04552755  0.71332133    -0.02670
C971        C  0.78696865  0.92386211  0.77336687    -0.09300
C972        C  0.77463344  0.93367518  0.78423475     0.06900
C973        C  0.77262760  0.92905777  0.80278332    -0.03070
C974        C  0.78305613  0.91485134  0.81022364    -0.07520
C975        C  0.79537961  0.90475162  0.79938653     0.06010
C976        C  0.79704829  0.90927777  0.78059740    -0.02540
Br977      Br  0.81118358  0.89535803  0.76337907    -0.02240
H978        H  0.78832559  0.92721001  0.75898478     0.09920
H979        H  0.78156239  0.91180772  0.82464176     0.07940
Br980      Br  0.75643494  0.94226721  0.81868922    -0.02670
C981        C  0.92041462  0.22441732  0.71484581    -0.09300
C982        C  0.93276973  0.21256424  0.72343905     0.06900
C983        C  0.92993982  0.19358040  0.72248418    -0.03070
C984        C  0.91483278  0.18668734  0.71299417    -0.07520
C985        C  0.90236913  0.19848891  0.70432503     0.06010
C986        C  0.90516918  0.21759045  0.70549538    -0.02540
Br987      Br  0.88800696  0.23514391  0.69613519    -0.02240
H988        H  0.92243228  0.23907426  0.71576551     0.09920
H989        H  0.91296299  0.17201030  0.71218278     0.07940
Br990      Br  0.94675038  0.17658454  0.73331701    -0.02670
C991        C  0.79678274  0.23326724  0.57472653    -0.09300
C992        C  0.78466015  0.22374807  0.56322952     0.06900
C993        C  0.78044170  0.20534232  0.56755776    -0.03070
C994        C  0.78890567  0.19685905  0.58247428    -0.07520
C995        C  0.80102805  0.20639820  0.59392398     0.06010
C996        C  0.80457850  0.22501960  0.59011302    -0.02540
Br997      Br  0.81818393  0.24083147  0.60606898    -0.02240
H998        H  0.80007692  0.24743723  0.57198252     0.09920
H999        H  0.78567830  0.18267673  0.58528285     0.07940
Br1000     Br  0.76204632  0.19118008  0.55526724    -0.02670
C1001       C  0.91522074  0.78113109  0.77018526    -0.09300
C1002       C  0.93338482  0.78636697  0.77361794     0.06900
C1003       C  0.93693875  0.79988548  0.78691768    -0.03070
C1004       C  0.92241680  0.80781342  0.79656303    -0.07520
C1005       C  0.90434623  0.80234038  0.79330274     0.06010
C1006       C  0.90074617  0.78888715  0.78004707    -0.02540
Br1007     Br  0.87627937  0.78087699  0.77490261    -0.02240
H1008       H  0.91231186  0.77079167  0.75998293     0.09920
H1009       H  0.92522545  0.81830973  0.80663474     0.07940
Br1010     Br  0.96115551  0.80887181  0.79167156    -0.02670
C1011       C  0.69085248  0.21997125  0.40660278    -0.09300
C1012       C  0.69685321  0.20198393  0.40324119     0.06900
C1013       C  0.71077180  0.19472137  0.41461456    -0.03070
C1014       C  0.71893183  0.20575101  0.42793502    -0.07520
C1015       C  0.71304983  0.22377170  0.43109393     0.06010
C1016       C  0.69837938  0.23063800  0.42056478    -0.02540
Br1017     Br  0.68644788  0.25353170  0.42542943    -0.02240
H1018       H  0.68000758  0.22590271  0.39848230     0.09920
H1019       H  0.72986286  0.19997768  0.43609014     0.07940
Br1020     Br  0.71843832  0.16958767  0.41447140    -0.02670
C1021       C  0.71786866  0.79054819  0.06642857    -0.09300
C1022       C  0.71338727  0.77201518  0.06395661     0.06900
C1023       C  0.70075697  0.76391106  0.07621630    -0.03070
C1024       C  0.69380481  0.77404226  0.09087878    -0.07520
C1025       C  0.69830694  0.79256345  0.09336470     0.06010
C1026       C  0.71019076  0.80093085  0.08054322    -0.02540
Br1027     Br  0.71529376  0.82670324  0.07984125    -0.02240
H1028       H  0.72722268  0.79725206  0.05709874     0.09920
H1029       H  0.68450314  0.76732071  0.10024583     0.07940
Br1030     Br  0.69060863  0.73988100  0.07312183    -0.02670
C1031       C  0.79595124  0.79024450  0.93517803    -0.09300
C1032       C  0.78438882  0.77555103  0.93074156     0.06900
C1033       C  0.78149775  0.77112856  0.91217863    -0.03070
C1034       C  0.79033468  0.78119072  0.89850162    -0.07520
C1035       C  0.80198691  0.79570581  0.90300047     0.06010
C1036       C  0.80481480  0.80024668  0.92145521    -0.02540
Br1037     Br  0.82092384  0.81973392  0.92845769    -0.02240
H1038       H  0.79833055  0.79376236  0.94937132     0.09920
H1039       H  0.78793973  0.77782212  0.88427153     0.07940
Br1040     Br  0.76466865  0.75245684  0.90459394    -0.02670
C1041       C  0.57860005  0.79254714  0.23202981    -0.09300
C1042       C  0.56473594  0.78383136  0.22183331     0.06900
C1043       C  0.56692216  0.78307145  0.20249926    -0.03070
C1044       C  0.58214226  0.79125456  0.19421530    -0.07520
C1045       C  0.59584522  0.79980261  0.20451904     0.06010
C1046       C  0.59411139  0.80006793  0.22371936    -0.02540
Br1047     Br  0.61305819  0.80868004  0.23975915    -0.02240
H1048       H  0.57772823  0.79338566  0.24674854     0.09920
H1049       H  0.58335912  0.79073062  0.17945575     0.07940
Br1050     Br  0.55112086  0.77034591  0.18584735    -0.02670
C1051       C  0.41466614  0.71795942  0.22491432    -0.09300
C1052       C  0.43274255  0.71210794  0.22214041     0.06900
C1053       C  0.43632217  0.69812689  0.20934062    -0.03070
C1054       C  0.42186358  0.69027745  0.19955688    -0.07520
C1055       C  0.40386356  0.69632205  0.20220112     0.06010
C1056       C  0.40027678  0.71029723  0.21491170    -0.02540
Br1057     Br  0.37594730  0.71928956  0.21898982    -0.02240
H1058       H  0.41177863  0.72873021  0.23467124     0.09920
H1059       H  0.42465749  0.67939848  0.18989142     0.07940
Br1060     Br  0.46047855  0.68854427  0.20546624    -0.02670
C1061       C  0.72968904  0.08097483  0.28604870    -0.09300
C1062       C  0.72101152  0.06411102  0.28290561     0.06900
C1063       C  0.70255595  0.06195967  0.28847759    -0.03070
C1064       C  0.69318059  0.07667767  0.29637342    -0.07520
C1065       C  0.70195843  0.09341797  0.29951588     0.06010
C1066       C  0.72042831  0.09548977  0.29434054    -0.02540
Br1067     Br  0.73348814  0.11810868  0.29716175    -0.02240
H1068       H  0.74373318  0.08304738  0.28178015     0.09920
H1069       H  0.67908843  0.07485502  0.30064346     0.07940
Br1070     Br  0.68965625  0.03909311  0.28750625    -0.02670
C1071       C  0.73332359  0.92112967  0.20002696    -0.09300
C1072       C  0.72362649  0.93313262  0.21147284     0.06900
C1073       C  0.70501864  0.92931948  0.21523779    -0.03070
C1074       C  0.69647497  0.91438379  0.20689582    -0.07520
C1075       C  0.70616322  0.90242037  0.19537291     0.06010
C1076       C  0.72500978  0.90573847  0.19235312    -0.02540
Br1077     Br  0.74105079  0.88923651  0.17965835    -0.02240
H1078       H  0.74766177  0.92352681  0.19715670     0.09920
H1079       H  0.68213094  0.91199270  0.20974987     0.07940
Br1080     Br  0.69068743  0.94244638  0.23292678    -0.02670
C1081       C  0.27306240  0.41569655  0.27354710    -0.09300
C1082       C  0.27227568  0.43215694  0.28328725     0.06900
C1083       C  0.28086815  0.43348767  0.30044072    -0.03070
C1084       C  0.28992929  0.41828427  0.30774268    -0.07520
C1085       C  0.29094105  0.40184407  0.29790169     0.06010
C1086       C  0.28245253  0.40061440  0.28062999    -0.02540
Br1087     Br  0.28240316  0.37844319  0.26658625    -0.02240
H1088       H  0.26639052  0.41460506  0.26036118     0.09920
H1089       H  0.29642162  0.41936624  0.32101724     0.07940
Br1090     Br  0.28030729  0.45568958  0.31439663    -0.02670
C1091       C  0.26590795  0.57663123  0.20062750    -0.09300
C1092       C  0.27538103  0.56447207  0.21215858     0.06900
C1093       C  0.29430750  0.56757890  0.21513187    -0.03070
C1094       C  0.30320740  0.58193482  0.20608718    -0.07520
C1095       C  0.29369858  0.59401460  0.19456915     0.06010
C1096       C  0.27467175  0.59144317  0.19223836    -0.02540
Br1097     Br  0.25917207  0.60845445  0.17955772    -0.02240
H1098       H  0.25140321  0.57487247  0.19824667     0.09920
H1099       H  0.31772680  0.58382799  0.20838313     0.07940
Br1100     Br  0.30891583  0.55436936  0.23252347    -0.02670
C1101       C  0.07596773  0.30268069  0.69403902    -0.09300
C1102       C  0.09384697  0.30136350  0.70076934     0.06900
C1103       C  0.09713686  0.29177207  0.71710539    -0.03070
C1104       C  0.08258172  0.28347896  0.72637760    -0.07520
C1105       C  0.06457634  0.28469157  0.71969466     0.06010
C1106       C  0.06130731  0.29470401  0.70345083    -0.02540
Br1107     Br  0.03720374  0.29959653  0.69420796    -0.02240
H1108       H  0.07334949  0.31036443  0.68163279     0.09920
H1109       H  0.08541052  0.27587414  0.73877805     0.07940
Br1110     Br  0.12135198  0.28911943  0.72690029    -0.02670
C1111       C  0.30140042  0.27054067  0.42622632    -0.09300
C1112       C  0.28287014  0.27349122  0.43012644     0.06900
C1113       C  0.27285052  0.28590038  0.41935793    -0.03070
C1114       C  0.28136218  0.29483512  0.40471533    -0.07520
C1115       C  0.30000479  0.29199990  0.40070037     0.06010
C1116       C  0.31013972  0.27990700  0.41198093    -0.02540
Br1117     Br  0.33616798  0.27666328  0.41026410    -0.02240
H1118       H  0.30929359  0.26131904  0.43474149     0.09920
H1119       H  0.27321175  0.30391050  0.39631939     0.07940
Br1120     Br  0.24729823  0.29047198  0.42345632    -0.02670
C1121       C  0.18818648  0.29531270  0.57416304    -0.09300
C1122       C  0.19609578  0.29517879  0.59161866     0.06900
C1123       C  0.21215493  0.28498320  0.59469600    -0.03070
C1124       C  0.21999949  0.27499935  0.58037564    -0.07520
C1125       C  0.21229971  0.27540474  0.56282000     0.06010
C1126       C  0.19628921  0.28570346  0.55972120    -0.02540
Br1127     Br  0.18455700  0.28643088  0.53625793    -0.02240
H1128       H  0.17577256  0.30304875  0.57173370     0.09920
H1129       H  0.23227997  0.26707991  0.58288548     0.07940
Br1130     Br  0.22348632  0.28380943  0.61833672    -0.02670
C1131       C  0.08948626  0.69115428  0.77513764    -0.09300
C1132       C  0.09492963  0.69908216  0.79183962     0.06900
C1133       C  0.08477496  0.71435504  0.79833663    -0.03070
C1134       C  0.07038359  0.72148060  0.78789132    -0.07520
C1135       C  0.06517088  0.71356245  0.77123774     0.06010
C1136       C  0.07466674  0.69794345  0.76508979    -0.02540
Br1137     Br  0.06714795  0.68401612  0.74414320    -0.02240
H1138       H  0.09661557  0.67937168  0.76976253     0.09920
H1139       H  0.06303097  0.73329130  0.79300131     0.07940
Br1140     Br  0.08805145  0.72577182  0.82175264    -0.02670
C1141       C  0.20072658  0.58957982  0.78208201    -0.09300
C1142       C  0.20511150  0.59485685  0.80008597     0.06900
C1143       C  0.21893979  0.58488910  0.80942947    -0.03070
C1144       C  0.22834590  0.57080423  0.80047079    -0.07520
C1145       C  0.22381318  0.56565131  0.78260984     0.06010
C1146       C  0.20971423  0.57503586  0.77345698    -0.02540
Br1147     Br  0.20276172  0.56920504  0.74882892    -0.02240
H1148       H  0.19035330  0.59688903  0.77446544     0.09920
H1149       H  0.23888208  0.56334214  0.80776455     0.07940
Br1150     Br  0.22484019  0.58802788  0.83482335    -0.02670
C1151       C  0.20157158  0.40693940  0.71306244    -0.09300
C1152       C  0.20259868  0.40516838  0.69392749     0.06900
C1153       C  0.21339437  0.41780378  0.68395607    -0.03070
C1154       C  0.22331636  0.43129369  0.69323917    -0.07520
C1155       C  0.22224728  0.43288707  0.71229071     0.06010
C1156       C  0.21116857  0.42070328  0.72222117    -0.02540
Br1157     Br  0.20931785  0.42188654  0.74837332    -0.02240
H1158       H  0.19348183  0.39741343  0.72103103     0.09920
H1159       H  0.23153208  0.44092493  0.68550495     0.07940
Br1160     Br  0.21399744  0.41867282  0.65771232    -0.02670
C1161       C  0.29711301  0.70951446  0.05998716    -0.09300
C1162       C  0.28428093  0.72314343  0.06435440     0.06900
C1163       C  0.28008150  0.72653164  0.08289160    -0.03070
C1164       C  0.28894508  0.71657042  0.09663515    -0.07520
C1165       C  0.30190763  0.70316718  0.09220017     0.06010
C1166       C  0.30597669  0.69961323  0.07375664    -0.02540
Br1167     Br  0.32373881  0.68157114  0.06684210    -0.02240
H1168       H  0.30046772  0.70675389  0.04581806     0.09920
H1169       H  0.28557072  0.71914481  0.11083765     0.07940
Br1170     Br  0.26146596  0.74354903  0.09021459    -0.02670
C1171       C  0.19492574  0.72546784  0.92887090    -0.09300
C1172       C  0.21383896  0.72407885  0.93166669     0.06900
C1173       C  0.22434159  0.71301264  0.91993833    -0.03070
C1174       C  0.21589210  0.70383747  0.90545271    -0.07520
C1175       C  0.19691734  0.70523176  0.90248157     0.06010
C1176       C  0.18633967  0.71591921  0.91468629    -0.02540
Br1177     Br  0.16008051  0.71687024  0.91405195    -0.02240
H1178       H  0.18670420  0.73362980  0.93812447     0.09920
H1179       H  0.22432601  0.69583433  0.89627272     0.07940
Br1180     Br  0.25039544  0.71077934  0.92244771    -0.02670
C1181       C  0.59045574  0.19184076  0.27602510    -0.09300
C1182       C  0.59265642  0.19655868  0.29453894     0.06900
C1183       C  0.58035642  0.20939197  0.30223817    -0.03070
C1184       C  0.56703469  0.21767208  0.29125889    -0.07520
C1185       C  0.56488701  0.21297709  0.27274694     0.06010
C1186       C  0.57658310  0.19949379  0.26528397    -0.02540
Br1187     Br  0.57350722  0.18919262  0.24132731    -0.02240
H1188       H  0.59941430  0.18184631  0.26978209     0.09920
H1189       H  0.55804174  0.22768164  0.29744887     0.07940
Br1190     Br  0.57929171  0.21511947  0.32785130    -0.02670
C1191       C  0.42749227  0.30224748  0.26788810    -0.09300
C1192       C  0.43201651  0.28398595  0.27151259     0.06900
C1193       C  0.42172330  0.27415788  0.28449221    -0.03070
C1194       C  0.40688440  0.28252317  0.29319972    -0.07520
C1195       C  0.40216593  0.30085353  0.28961013     0.06010
C1196       C  0.41304421  0.31087895  0.27703987    -0.02540
Br1197     Br  0.41045918  0.33665575  0.27268728    -0.02240
H1198       H  0.43563615  0.31003323  0.25823509     0.09920
H1199       H  0.39883097  0.27442089  0.30262766     0.07940
Br1200     Br  0.42653705  0.24896036  0.29012247    -0.02670
C1201       C  0.50465096  0.73461191  0.38256794    -0.09300
C1202       C  0.49673800  0.74963529  0.39186901     0.06900
C1203       C  0.48959390  0.76418597  0.38092991    -0.03070
C1204       C  0.49028888  0.76309869  0.36181065    -0.07520
C1205       C  0.49812448  0.74810683  0.35301350     0.06010
C1206       C  0.50543819  0.73383346  0.36346780    -0.02540
Br1207     Br  0.51647631  0.71288217  0.35215141    -0.02240
H1208       H  0.51027069  0.72315373  0.38997081     0.09920
H1209       H  0.48474340  0.77417413  0.35365205     0.07940
Br1210     Br  0.47896847  0.78649719  0.38975123    -0.02670
C1211       C  0.54640724  0.67205300  0.51433692    -0.09300
C1212       C  0.53298985  0.68240907  0.52336954     0.06900
C1213       C  0.52827682  0.67764418  0.54148969    -0.03070
C1214       C  0.53754722  0.66342631  0.55032537    -0.07520
C1215       C  0.55107176  0.65305021  0.54134561     0.06010
C1216       C  0.55516366  0.65734745  0.52288890    -0.02540
Br1217     Br  0.57103906  0.64312685  0.50753284    -0.02240
H1218       H  0.55003923  0.67526026  0.50033534     0.09920
H1219       H  0.53384913  0.66035550  0.56432882     0.07940
Br1220     Br  0.50817954  0.68849056  0.55451775    -0.02670
C1221       C  0.45864215  0.81290823  0.54183760    -0.09300
C1222       C  0.46131860  0.81498369  0.52285306     0.06900
C1223       C  0.45572936  0.83161493  0.51454270    -0.03070
C1224       C  0.44731870  0.84517953  0.52506695    -0.07520
C1225       C  0.44492612  0.84306886  0.54394798     0.06010
C1226       C  0.45076519  0.82679214  0.55238987    -0.02540
Br1227     Br  0.44753042  0.82235500  0.57807120    -0.02240
H1228       H  0.46254100  0.80034538  0.54862643     0.09920
H1229       H  0.44319851  0.85783441  0.51852784     0.07940
Br1230     Br  0.46042205  0.83808081  0.48951345    -0.02670
C1231       C  0.23543315  0.13533535  0.48863706    -0.09300
C1232       C  0.24900412  0.14397914  0.49894729     0.06900
C1233       C  0.26177415  0.13333068  0.50851483    -0.03070
C1234       C  0.26062510  0.11423330  0.50795712    -0.07520
C1235       C  0.24702611  0.10524346  0.49762090     0.06010
C1236       C  0.23434049  0.11621904  0.48773111    -0.02540
Br1237     Br  0.21593639  0.10689045  0.47150241    -0.02240
H1238       H  0.22574291  0.14356691  0.48100492     0.09920
H1239       H  0.27055881  0.10646159  0.51568946     0.07940
Br1240     Br  0.28154168  0.14433649  0.52180635    -0.02670
C1241       C  0.15486428  0.95422954  0.46461879    -0.09300
C1242       C  0.15329517  0.95469950  0.44546480     0.06900
C1243       C  0.16630542  0.96473570  0.43522710    -0.03070
C1244       C  0.18014002  0.97440958  0.44425828    -0.07520
C1245       C  0.18158542  0.97389544  0.46335203     0.06010
C1246       C  0.16887294  0.96368086  0.47356486    -0.02540
Br1247     Br  0.16958472  0.96297374  0.49978778    -0.02240
H1248       H  0.14497649  0.94671669  0.47272315     0.09920
H1249       H  0.19009525  0.98202426  0.43632013     0.07940
Br1250     Br  0.16703292  0.96456014  0.40897063    -0.02670
C1251       C  0.34166403  0.97187990  0.55334216    -0.09300
C1252       C  0.34242516  0.95293486  0.55037597     0.06900
C1253       C  0.32870811  0.94472208  0.53957502    -0.03070
C1254       C  0.31516861  0.95555447  0.53145287    -0.07520
C1255       C  0.31437943  0.97459586  0.53428654     0.06010
C1256       C  0.32777642  0.98267030  0.54574131    -0.02540
Br1257     Br  0.32748233  0.00780813  0.55328826    -0.02240
H1258       H  0.35188756  0.97840291  0.56184827     0.09920
H1259       H  0.30503436  0.94884920  0.52301148     0.07940
Br1260     Br  0.32640793  0.91869850  0.53676134    -0.02670
C1261       C  0.86291018  0.99765283  0.23076848    -0.09300
C1262       C  0.85374687  0.00056509  0.24737643     0.06900
C1263       C  0.86404796  0.00331889  0.26341304    -0.03070
C1264       C  0.88316727  0.00351203  0.26254560    -0.07520
C1265       C  0.89241711  0.00097944  0.24587889     0.06010
C1266       C  0.88205608  0.99785136  0.22985883    -0.02540
Br1267     Br  0.89297471  0.99232452  0.20661193    -0.02240
H1268       H  0.85511190  0.99519041  0.21841178     0.09920
H1269       H  0.89084754  0.00566164  0.27502704     0.07940
Br1270     Br  0.85284217  0.00547041  0.28707330    -0.02670
C1271       C  0.04115806  0.96492274  0.31434543    -0.09300
C1272       C  0.02180346  0.96464621  0.31480238     0.06900
C1273       C  0.01334394  0.95559288  0.32988997    -0.03070
C1274       C  0.02409674  0.94761820  0.34356688    -0.07520
C1275       C  0.04322200  0.94813626  0.34293885     0.06010
C1276       C  0.05177830  0.95674514  0.32800053    -0.02540
Br1277     Br  0.07785273  0.95664426  0.32454237    -0.02240
H1278       H  0.04842961  0.97134991  0.30323287     0.09920
H1279       H  0.01735164  0.94103666  0.35501843     0.07940
Br1280     Br  0.98755278  0.95264219  0.33385186    -0.02670
C1281       C  0.03024671  0.03923628  0.14849670    -0.09300
C1282       C  0.04391852  0.05209508  0.15232712     0.06900
C1283       C  0.04780813  0.05668139  0.17057593    -0.03070
C1284       C  0.03802876  0.04834131  0.18476986    -0.07520
C1285       C  0.02415833  0.03559965  0.18099199     0.06010
C1286       C  0.02036055  0.03095935  0.16265197    -0.02540
Br1287     Br  0.00277729  0.01256803  0.15616043    -0.02240
H1288       H  0.02736657  0.03552152  0.13444462     0.09920
H1289       H  0.04104968  0.05204766  0.19879210     0.07940
Br1290     Br  0.06612480  0.07446268  0.17663759    -0.02670
C1291       C  0.01615997  0.25732031  0.88268151    -0.09300
C1292       C  0.00174983  0.24872566  0.89177645     0.06900
C1293       C  0.98790855  0.24026965  0.88162139    -0.03070
C1294       C  0.98873284  0.24033614  0.86251036    -0.07520
C1295       C  0.00319567  0.24895246  0.85291321     0.06010
C1296       C  0.01710220  0.25763349  0.86354802    -0.02540
Br1297     Br  0.03782578  0.27080920  0.85424567    -0.02240
H1298       H  0.02679969  0.26393212  0.89061431     0.09920
H1299       H  0.97781979  0.23348373  0.85532717     0.07940
Br1300     Br  0.96737566  0.22881832  0.89335423    -0.02670
C1301       C  0.06126536  0.17087687  0.04201683    -0.09300
C1302       C  0.05194970  0.15411588  0.04225372     0.06900
C1303       C  0.03542782  0.15226118  0.03254011    -0.03070
C1304       C  0.02850195  0.16710634  0.02266554    -0.07520
C1305       C  0.03765452  0.18395406  0.02267123     0.06010
C1306       C  0.05411520  0.18585039  0.03248371    -0.02540
Br1307     Br  0.06760834  0.20836731  0.03265934    -0.02240
H1308       H  0.07405567  0.17233868  0.04936567     0.09920
H1309       H  0.01585604  0.16555708  0.01508992     0.07940
Br1310     Br  0.02226517  0.12956125  0.03178494    -0.02670
C1311       C  0.97305303  0.32034546  0.03894652    -0.09300
C1312       C  0.96562384  0.31546829  0.02197554     0.06900
C1313       C  0.94990153  0.32470965  0.01575681    -0.03070
C1314       C  0.94262264  0.33911393  0.02600225    -0.07520
C1315       C  0.95013706  0.34435536  0.04297915     0.06010
C1316       C  0.96540829  0.33427749  0.04960737    -0.02540
Br1317     Br  0.97627225  0.33703875  0.07334714    -0.02240
H1318       H  0.98491567  0.31311166  0.04411285     0.09920
H1319       H  0.93082462  0.34607956  0.02047615     0.07940
Br1320     Br  0.93653497  0.31740191  0.99436045    -0.02670
C1321       C  0.11311623  0.49870619  0.26336457    -0.09300
C1322       C  0.10415899  0.50036215  0.24643745     0.06900
C1323       C  0.11481819  0.50234874  0.23040530    -0.03070
C1324       C  0.13395254  0.50253852  0.23158502    -0.07520
C1325       C  0.14281332  0.50057660  0.24846809     0.06010
C1326       C  0.13224275  0.49870494  0.26447525    -0.02540
Br1327     Br  0.14320032  0.49729371  0.28828572    -0.02240
H1328       H  0.10519826  0.49735887  0.27582827     0.09920
H1329       H  0.14198163  0.50418425  0.21922364     0.07940
Br1330     Br  0.10430000  0.50620073  0.20666249    -0.02670
C1331       C  0.97652765  0.44682361  0.17685122    -0.09300
C1332       C  0.97275035  0.46512314  0.18102960     0.06900
C1333       C  0.95915703  0.47443788  0.17106251    -0.03070
C1334       C  0.94981151  0.46544858  0.15698211    -0.07520
C1335       C  0.95352379  0.44705159  0.15270098     0.06010
C1336       C  0.96687120  0.43762409  0.16314392    -0.02540
Br1337     Br  0.97161828  0.41187623  0.16097336    -0.02240
H1338       H  0.98667300  0.43943725  0.18474827     0.09920
H1339       H  0.93978370  0.47304456  0.14916501     0.07940
Br1340     Br  0.95352770  0.49970647  0.17539190    -0.02670
C1341       C  0.38389088  0.48649402  0.73611251    -0.09300
C1342       C  0.39288727  0.49878544  0.74766325     0.06900
C1343       C  0.38252848  0.51028763  0.75903543    -0.03070
C1344       C  0.36341691  0.50913664  0.75894944    -0.07520
C1345       C  0.35412797  0.49673821  0.74747239     0.06010
C1346       C  0.36475131  0.48533580  0.73583319    -0.02540
Br1347     Br  0.35476706  0.46867636  0.71818606    -0.02240
H1348       H  0.39185538  0.47772985  0.72718838     0.09920
H1349       H  0.35584807  0.51809238  0.76797920     0.07940
Br1350     Br  0.39382817  0.52861604  0.77403945    -0.02670
C1351       C  0.54160268  0.46510067  0.81539731    -0.09300
C1352       C  0.52256529  0.46216829  0.81452055     0.06900
C1353       C  0.51448216  0.45054115  0.82779009    -0.03070
C1354       C  0.52522768  0.44303850  0.84173055    -0.07520
C1355       C  0.54417021  0.44610363  0.84258064     0.06010
C1356       C  0.55242403  0.45692540  0.82887398    -0.02540
Br1357     Br  0.57845794  0.45976614  0.82639146    -0.02240
H1358       H  0.54835703  0.47365986  0.80538680     0.09920
H1359       H  0.51864412  0.43452580  0.85192220     0.07940
Br1360     Br  0.48944453  0.44258241  0.82735079    -0.02670
C1361       C  0.51473652  0.54383285  0.66880233    -0.09300
C1362       C  0.52471025  0.53368640  0.68180707     0.06900
C1363       C  0.54393133  0.53206052  0.67925247    -0.03070
C1364       C  0.55242331  0.54080910  0.66447822    -0.07520
C1365       C  0.54234051  0.55067988  0.65148833     0.06010
C1366       C  0.52317852  0.55184455  0.65361541    -0.02540
Br1367     Br  0.50722327  0.56222568  0.63549631    -0.02240
H1368       H  0.50007607  0.54533019  0.67008223     0.09920
H1369       H  0.56711789  0.53953807  0.66294594     0.07940
Br1370     Br  0.55987409  0.51706129  0.69377376    -0.02670
C1371       C  0.49714169  0.26434085  0.11154542    -0.09300
C1372       C  0.50144645  0.24776707  0.10282256     0.06900
C1373       C  0.50563633  0.23233048  0.11368297    -0.03070
C1374       C  0.50524463  0.23369481  0.13278627    -0.07520
C1375       C  0.50064670  0.25018998  0.14144753     0.06010
C1376       C  0.49668429  0.26566138  0.13063539    -0.02540
Br1377     Br  0.49197725  0.28928379  0.14108009    -0.02240
H1378       H  0.49412726  0.27639313  0.10346250     0.09920
H1379       H  0.50859303  0.22177826  0.14094575     0.07940
Br1380     Br  0.51340653  0.20942018  0.10348093    -0.02670
C1381       C  0.46090294  0.16341535  0.94418390    -0.09300
C1382       C  0.44691115  0.15346224  0.95295679     0.06900
C1383       C  0.44265709  0.15801406  0.97133671    -0.03070
C1384       C  0.45173185  0.17249838  0.97995376    -0.07520
C1385       C  0.46567660  0.18236173  0.97114615     0.06010
C1386       C  0.47051429  0.17734437  0.95312127    -0.02540
Br1387     Br  0.49121881  0.18732966  0.94033656    -0.02240
H1388       H  0.46475167  0.16020801  0.93026310     0.09920
H1389       H  0.44795281  0.17587977  0.99386916     0.07940
Br1390     Br  0.42611815  0.14446604  0.98662377    -0.02670
C1391       C  0.55007591  0.31108139  0.95891274    -0.09300
C1392       C  0.53688796  0.31487020  0.97237251     0.06900
C1393       C  0.53165300  0.33315975  0.97557586    -0.03070
C1394       C  0.53975952  0.34728083  0.96549931    -0.07520
C1395       C  0.55307791  0.34345718  0.95225371     0.06010
C1396       C  0.55827635  0.32524478  0.94896890    -0.02540
Br1397     Br  0.57655380  0.31919831  0.93111656    -0.02240
H1398       H  0.55417359  0.29708108  0.95629573     0.09920
H1399       H  0.53558487  0.36129419  0.96792344     0.07940
Br1400     Br  0.51267164  0.33953834  0.99257761    -0.02670
C1401       C  0.99632411  0.76615989  0.61226966    -0.09300
C1402       C  0.99682458  0.74934795  0.60292211     0.06900
C1403       C  0.99804218  0.73301141  0.61329710    -0.03070
C1404       C  0.99834893  0.73382553  0.63243423    -0.07520
C1405       C  0.99743964  0.75060529  0.64162050     0.06010
C1406       C  0.99663144  0.76688895  0.63139538    -0.02540
Br1407     Br  0.99716155  0.79048712  0.64285813    -0.02240
H1408       H  0.99561075  0.77886880  0.60468742     0.09920
H1409       H  0.99931147  0.72124431  0.64022455     0.07940
Br1410     Br  0.00073719  0.70918805  0.60259152    -0.02670
C1411       C  0.04417868  0.82776083  0.48085242    -0.09300
C1412       C  0.03262150  0.81575225  0.47124216     0.06900
C1413       C  0.02948631  0.81921850  0.45242380    -0.03070
C1414       C  0.03846337  0.83373682  0.44371991    -0.07520
C1415       C  0.05006379  0.84563571  0.45334736     0.06010
C1416       C  0.05249707  0.84273740  0.47230269    -0.02540
Br1417     Br  0.06524200  0.85948373  0.48800848    -0.02240
H1418       H  0.04665095  0.82573349  0.49529894     0.09920
H1419       H  0.03606285  0.83588365  0.42926262     0.07940
Br1420     Br  0.01194484  0.80627304  0.43777476    -0.02670
C1421       C  0.97134805  0.54970892  0.34430475    -0.09300
C1422       C  0.95270415  0.55327218  0.34168444     0.06900
C1423       C  0.94448927  0.54839479  0.32499724    -0.03070
C1424       C  0.95506630  0.54048508  0.31114186    -0.07520
C1425       C  0.97383140  0.53675623  0.31364578     0.06010
C1426       C  0.98184388  0.54116648  0.33075542    -0.02540
Br1427     Br  0.00628506  0.53455122  0.33775895    -0.02240
H1428       H  0.97765946  0.55301301  0.35729954     0.09920
H1429       H  0.94848008  0.53742972  0.29825338     0.07940
Br1430     Br  0.91910881  0.55301734  0.32000951    -0.02670
C1431       C  0.95389747  0.65106443  0.46802459    -0.09300
C1432       C  0.94456901  0.65511736  0.45179666     0.06900
C1433       C  0.94375269  0.67329781  0.44558948    -0.03070
C1434       C  0.95212960  0.68718833  0.45573105    -0.07520
C1435       C  0.96141377  0.68322480  0.47209276     0.06010
C1436       C  0.96248235  0.66488315  0.47808571    -0.02540
Br1437     Br  0.97676132  0.65754687  0.49886542    -0.02240
H1438       H  0.95485419  0.63701404  0.47266003     0.09920
H1439       H  0.95117209  0.70117969  0.45093236     0.07940
Br1440     Br  0.93079835  0.67981075  0.42372020    -0.02670
C1441       C  0.74555007  0.38436035  0.51200869    -0.09300
C1442       C  0.74926559  0.39359703  0.49559560     0.06900
C1443       C  0.75300864  0.38332250  0.47971577    -0.03070
C1444       C  0.75330185  0.36420905  0.48057757    -0.07520
C1445       C  0.74988032  0.35490562  0.49705438     0.06010
C1446       C  0.74582277  0.36522894  0.51290004    -0.02540
Br1447     Br  0.73907887  0.35431500  0.53583329    -0.02240
H1448       H  0.74237386  0.39209135  0.52424578     0.09920
H1449       H  0.75619518  0.35656910  0.46822050     0.07940
Br1450     Br  0.75636015  0.39445423  0.45615718    -0.02670
C1451       C  0.83030361  0.51674008  0.45798187    -0.09300
C1452       C  0.81347737  0.52574452  0.46061019     0.06900
C1453       C  0.81189889  0.54423142  0.45494192    -0.03070
C1454       C  0.82708638  0.55328479  0.44755492    -0.07520
C1455       C  0.84371908  0.54415496  0.44490520     0.06010
C1456       C  0.84524949  0.52568228  0.45005833    -0.02540
Br1457     Br  0.86768361  0.51225831  0.44746746    -0.02240
H1458       H  0.83199577  0.50267067  0.46228294     0.09920
H1459       H  0.82573376  0.56741594  0.44326875     0.07940
Br1460     Br  0.78932159  0.55768577  0.45499688    -0.02670
C1461       C  0.66412876  0.51922155  0.52877919    -0.09300
C1462       C  0.68220732  0.52390736  0.53333482     0.06900
C1463       C  0.68531842  0.53824834  0.54590235    -0.03070
C1464       C  0.67047972  0.54771938  0.55340989    -0.07520
C1465       C  0.65250678  0.54303545  0.54876821     0.06010
C1466       C  0.64932022  0.52872142  0.53634654    -0.02540
Br1467     Br  0.62499972  0.52205725  0.52905107    -0.02240
H1468       H  0.66152076  0.50829846  0.51911878     0.09920
H1469       H  0.67295771  0.55858219  0.56317656     0.07940
Br1470     Br  0.70929869  0.54460765  0.55455029    -0.02670
C1471       C  0.74764510  0.61384222  0.97873150    -0.09300
C1472       C  0.74925136  0.60453687  0.99540728     0.06900
C1473       C  0.75061845  0.61465278  0.01171787    -0.03070
C1474       C  0.75078773  0.63377542  0.01107163    -0.07520
C1475       C  0.74958869  0.64322240  0.99434069     0.06010
C1476       C  0.74780595  0.63297348  0.97801450    -0.02540
Br1477     Br  0.74420017  0.64384093  0.95437976    -0.02240
H1478       H  0.74632339  0.60615008  0.96613740     0.09920
H1479       H  0.75194551  0.64127888  0.02378405     0.07940
Br1480     Br  0.75105464  0.60310813  0.03530360    -0.02670
C1481       C  0.66919263  0.48236532  0.95481098    -0.09300
C1482       C  0.68478935  0.47246779  0.96034078     0.06900
C1483       C  0.68479228  0.45321064  0.95771097    -0.03070
C1484       C  0.66939630  0.44457292  0.95028942    -0.07520
C1485       C  0.65406214  0.45459692  0.94468385     0.06010
C1486       C  0.65408166  0.47372503  0.94691306    -0.02540
Br1487     Br  0.63352274  0.48882910  0.94058954    -0.02240
H1488       H  0.66848241  0.49699906  0.95682398     0.09920
H1489       H  0.66961999  0.42987546  0.94836293     0.07940
Br1490     Br  0.70533613  0.43747977  0.96224858    -0.02670
C1491       C  0.81982623  0.45649806  0.02643582    -0.09300
C1492       C  0.81679064  0.47457895  0.03213779     0.06900
C1493       C  0.82780030  0.48174801  0.04628132    -0.03070
C1494       C  0.84191056  0.47116309  0.05371242    -0.07520
C1495       C  0.84503560  0.45304294  0.04802365     0.06010
C1496       C  0.83342324  0.44561615  0.03439680    -0.02540
Br1497     Br  0.83361761  0.42041008  0.02701209    -0.02240
H1498       H  0.81128941  0.45057541  0.01588105     0.09920
H1499       H  0.85030558  0.47720044  0.06428822     0.07940
Br1500     Br  0.82329436  0.50498246  0.05766626    -0.02670
C1501       C  0.61346628  0.99104210  0.76199134    -0.09300
C1502       C  0.60421922  0.99853061  0.74695827     0.06900
C1503       C  0.61444313  0.00614103  0.73248860    -0.03070
C1504       C  0.63358379  0.00574891  0.73307798    -0.07520
C1505       C  0.64293090  0.99788896  0.74793778     0.06010
C1506       C  0.63260375  0.99064490  0.76263944    -0.02540
Br1507     Br  0.64341634  0.98127254  0.78466450    -0.02240
H1508       H  0.60572970  0.98543096  0.77333656     0.09920
H1509       H  0.64119300  0.01160947  0.72178397     0.07940
Br1510     Br  0.60308986  0.01844201  0.71225627    -0.02670
C1511       C  0.45870265  0.97192451  0.67428163    -0.09300
C1512       C  0.47266923  0.96163876  0.68242374     0.06900
C1513       C  0.47621106  0.94387226  0.67593555    -0.03070
C1514       C  0.46572429  0.93670799  0.66163765    -0.07520
C1515       C  0.45183041  0.94703773  0.65313986     0.06010
C1516       C  0.44855867  0.96505196  0.65958033    -0.02540
Br1517     Br  0.43195516  0.98203605  0.64837298    -0.02240
H1518       H  0.45608566  0.98573033  0.67899936     0.09920
H1519       H  0.46846767  0.92283438  0.65728416     0.07940
Br1520     Br  0.49449986  0.92833941  0.68663248    -0.02670
C1521       C  0.45586561  0.02947553  0.81665004    -0.09300
C1522       C  0.47419305  0.03457306  0.81382649     0.06900
C1523       C  0.48183178  0.04814194  0.82525818    -0.03070
C1524       C  0.47152078  0.05540154  0.83965062    -0.07520
C1525       C  0.45324546  0.05013763  0.84268287     0.06010
C1526       C  0.44528082  0.03731704  0.83054589    -0.02540
Br1527     Br  0.41977625  0.03092597  0.83056474    -0.02240
H1528       H  0.44954288  0.01941806  0.80781424     0.09920
H1529       H  0.47794477  0.06542822  0.84842516     0.07940
Br1530     Br  0.50545245  0.05894126  0.82118085    -0.02670
C1531       C  0.24920615  0.86367858  0.01526491    -0.09300
C1532       C  0.24871514  0.85447010  0.99837008     0.06900
C1533       C  0.24926657  0.86496694  0.98207678    -0.03070
C1534       C  0.25007759  0.88407615  0.98302650    -0.07520
C1535       C  0.25027026  0.89311501  0.99989513     0.06010
C1536       C  0.24994429  0.88278791  0.01612424    -0.02540
Br1537     Br  0.25155928  0.89409595  0.03974678    -0.02240
H1538       H  0.24894355  0.85600023  0.02793506     0.09920
H1539       H  0.25051969  0.89196665  0.97047886     0.07940
Br1540     Br  0.25028923  0.85447447  0.95804016    -0.02670
C1541       C  0.31708241  0.02431306  0.94499156    -0.09300
C1542       C  0.31612429  0.02422345  0.96413016     0.06900
C1543       C  0.32898299  0.03431004  0.97427706    -0.03070
C1544       C  0.34263680  0.04421897  0.96521333    -0.07520
C1545       C  0.34371816  0.04428920  0.94602761     0.06010
C1546       C  0.33058040  0.03440762  0.93587578    -0.02540
Br1547     Br  0.32931960  0.03537681  0.90966180    -0.02240
H1548       H  0.30699734  0.01685323  0.93709977     0.09920
H1549       H  0.35266552  0.05162094  0.97322165     0.07940
Br1550     Br  0.32902419  0.03417440  0.00051822    -0.02670
C1551       C  0.18225018  0.04214434  0.03236473    -0.09300
C1552       C  0.18307226  0.02306621  0.03498708     0.06900
C1553       C  0.16924807  0.01475929  0.04583382    -0.03070
C1554       C  0.15497713  0.02535219  0.05294720    -0.07520
C1555       C  0.15424686  0.04433531  0.05027017     0.06010
C1556       C  0.16837315  0.05278891  0.04015876    -0.02540
Br1557     Br  0.17084329  0.07885629  0.03792965    -0.02240
H1558       H  0.19264131  0.04906486  0.02440924     0.09920
H1559       H  0.14443056  0.01861812  0.06090078     0.07940
Br1560     Br  0.16918878  0.98958349  0.05333195    -0.02670
loop_ 
_geom_bond_atom_site_label_1 
_geom_bond_atom_site_label_2 
_geom_bond_distance 
_geom_bond_site_symmetry_2 
_ccdc_geom_bond_type 
N1            N2   1.319   1_545  A
N1            C5   1.344       .  A
N1           Cu9   2.075       .  S
N2            C3   1.343       .  A
N2           Cu8   2.069       .  S
C3            C4   1.390   1_565  A
C3            H6   1.077       .  S
C4            C5   1.393       .  A
C4         C1552   1.496       .  S
C5            H7   1.081       .  S
Cu8          N11   2.070       .  S
Cu9          N19   2.076   1_554  S
Cu10         N12   2.077       .  S
Cu10         N18   2.078       .  S
N11          N12   1.322   1_554  A
N11          C15   1.345       .  A
N12          C13   1.346       .  A
C13          C14   1.383   1_556  A
C13          H16   1.082       .  S
C14          C15   1.382       .  A
C14        C1535   1.474   1_554  S
C15          H17   1.082       .  S
N18          N19   1.324   1_565  A
N18          C22   1.346       .  A
N19          C20   1.345       .  A
C20          C21   1.381       .  A
C20          H23   1.082       .  S
C21          C22   1.381   1_545  A
C21        C1542   1.472       .  S
C22          H24   1.082       .  S
N25          N26   1.320       .  A
N25          C29   1.344       .  A
N25         Cu33   2.071   1_545  S
N26          C27   1.344       .  A
N26         Cu32   2.073       .  S
C27          C28   1.388       .  A
C27          H30   1.080       .  S
C28          C29   1.388       .  A
C28        C1522   1.487       .  S
C29          H31   1.081       .  S
Cu32         N35   2.073       .  S
Cu33         N43   2.071       .  S
Cu34         N36   2.074       .  S
Cu34         N42   2.074       .  S
N35          N36   1.322   1_545  A
N35          C39   1.345       .  A
N36          C37   1.345       .  A
C37          C38   1.384       .  A
C37          H40   1.082       .  S
C38          C39   1.383   1_565  A
C38        C1502   1.477       .  S
C39          H41   1.082       .  S
N42          N43   1.322       .  A
N42          C46   1.345       .  A
N43          C44   1.344       .  A
C44          C45   1.383       .  A
C44          H47   1.082       .  S
C45          C46   1.384       .  A
C45        C1512   1.477       .  S
C46          H48   1.082       .  S
N49          N50   1.319       .  A
N49          C53   1.343       .  A
N49         Cu57   2.067       .  S
N50          C51   1.344       .  A
N50         Cu56   2.079       .  S
C51          C52   1.393       .  A
C51          H54   1.081       .  S
C52          C53   1.389       .  A
C52        C1482   1.496       .  S
C53          H55   1.077       .  S
Cu56         N59   2.079       .  S
Cu57         N67   2.068   1_556  S
Cu58         N60   2.073   1_554  S
Cu58         N66   2.072       .  S
N59          N60   1.323       .  A
N59          C63   1.346       .  A
N60          C61   1.345   1_556  A
C61          C62   1.382   1_554  A
C61          H64   1.082       .  S
C62          C63   1.383       .  A
C62        C1472   1.475       .  S
C63          H65   1.082       .  S
N66          N67   1.320       .  A
N66          C70   1.345       .  A
N67          C68   1.343       .  A
C68          C69   1.386       .  A
C68          H71   1.082       .  S
C69          C70   1.388       .  A
C69        C1492   1.486       .  S
C70          H72   1.080       .  S
N73          N74   1.319       .  A
N73          C77   1.343       .  A
N73         Cu81   2.064       .  S
N74          C75   1.344       .  A
N74         Cu80   2.075       .  S
C75          C76   1.390       .  A
C75          H78   1.081       .  S
C76          C77   1.387       .  A
C76        C1452   1.488       .  S
C77          H79   1.079       .  S
Cu80         N83   2.075       .  S
Cu81         N91   2.064       .  S
Cu82         N84   2.078       .  S
Cu82         N90   2.078       .  S
N83          N84   1.323       .  A
N83          C87   1.345       .  A
N84          C85   1.346       .  A
C85          C86   1.384       .  A
C85          H88   1.082       .  S
C86          C87   1.384       .  A
C86        C1442   1.479       .  S
C87          H89   1.081       .  S
N90          N91   1.322       .  A
N90          C94   1.346       .  A
N91          C92   1.343       .  A
C92          C93   1.382       .  A
C92          H95   1.082       .  S
C93          C94   1.385       .  A
C93        C1462   1.477       .  S
C94          H96   1.082       .  S
N97          N98   1.322       .  A
N97         C101   1.345       .  A
N97        Cu105   2.071       .  S
N98          C99   1.344       .  A
N98        Cu104   2.071       .  S
C99         C100   1.382       .  A
C99         H102   1.082       .  S
C100        C101   1.382       .  A
C100       C1455   1.473       .  S
C101        H103   1.082       .  S
Cu104       N107   2.071       .  S
Cu105       N115   2.071       .  S
Cu106       N108   2.075       .  S
Cu106       N114   2.075       .  S
N107        N108   1.322       .  A
N107        C111   1.345       .  A
N108        C109   1.345       .  A
C109        C110   1.383       .  A
C109        H112   1.082       .  S
C110        C111   1.383       .  A
C110       C1422   1.476       .  S
C111        H113   1.082       .  S
N114        N115   1.323       .  A
N114        C118   1.345       .  A
N115        C116   1.345       .  A
C116        C117   1.380       .  A
C116        H119   1.082       .  S
C117        C118   1.381       .  A
C117       C1432   1.469       .  S
C118        H120   1.082       .  S
N121        N122   1.320       .  A
N121        C125   1.343       .  A
N121       Cu129   2.068   1_455  S
N122        C123   1.345       .  A
N122       Cu128   2.082       .  S
C123        C124   1.392       .  A
C123        H126   1.081       .  S
C124        C125   1.388       .  A
C124       C1412   1.494       .  S
C125        H127   1.078       .  S
Cu128       N131   2.083   1_455  S
Cu129       N139   2.068       .  S
Cu130       N132   2.074       .  S
Cu130       N138   2.074       .  S
N131        N132   1.321       .  A
N131        C135   1.346   1_655  A
N132        C133   1.344       .  A
C133        C134   1.387       .  A
C133        H136   1.080       .  S
C134        C135   1.389   1_655  A
C134       C1402   1.488       .  S
C135        H137   1.082       .  S
N138        N139   1.321       .  A
N138        C142   1.345       .  A
N139        C140   1.344       .  A
C140        C141   1.384       .  A
C140        H143   1.082       .  S
C141        C142   1.385       .  A
C141       C1435   1.479       .  S
C142        H144   1.081       .  S
N145        N146   1.322   1_556  A
N145        C149   1.344       .  A
N145       Cu153   2.068       .  S
N146        C147   1.345       .  A
N146       Cu152   2.075       .  S
C147        C148   1.384   1_554  A
C147        H150   1.082       .  S
C148        C149   1.382       .  A
C148       C1392   1.475       .  S
C149        H151   1.082       .  S
Cu152       N155   2.076       .  S
Cu153       N163   2.068       .  S
Cu154       N156   2.080       .  S
Cu154       N162   2.080       .  S
N155        N156   1.322       .  A
N155        C159   1.345       .  A
N156        C157   1.346       .  A
C157        C158   1.386       .  A
C157        H160   1.081       .  S
C158        C159   1.385       .  A
C158       C1372   1.483       .  S
C159        H161   1.082       .  S
N162        N163   1.321   1_554  A
N162        C166   1.345       .  A
N163        C164   1.344       .  A
C164        C165   1.387       .  A
C164        H167   1.080       .  S
C165        C166   1.390   1_556  A
C165       C1385   1.489       .  S
C166        H168   1.082       .  S
N169        N170   1.320       .  A
N169        C173   1.344       .  A
N169       Cu177   2.075       .  S
N170        C171   1.344       .  A
N170       Cu176   2.078       .  S
C171        C172   1.392       .  A
C171        H174   1.081       .  S
C172        C173   1.391       .  A
C172       C1382   1.497       .  S
C173        H175   1.077       .  S
Cu176       N179   2.077       .  S
Cu177       N187   2.076       .  S
Cu178       N180   2.067       .  S
Cu178       N186   2.067       .  S
N179        N180   1.320       .  A
N179        C183   1.344       .  A
N180        C181   1.343       .  A
C181        C182   1.388       .  A
C181        H184   1.079       .  S
C182        C183   1.391       .  A
C182       C1525   1.492       .  S
C183        H185   1.081       .  S
N186        N187   1.321       .  A
N186        C190   1.344       .  A
N187        C188   1.345       .  A
C188        C189   1.386       .  A
C188        H191   1.082       .  S
C189        C190   1.384       .  A
C189       C1545   1.479       .  S
C190        H192   1.082       .  S
N193        N194   1.318       .  A
N193        C197   1.342       .  A
N193       Cu201   2.063       .  S
N194        C195   1.344       .  A
N194       Cu200   2.080       .  S
C195        C196   1.395       .  A
C195        H198   1.081       .  S
C196        C197   1.390       .  A
C196       C1362   1.498       .  S
C197        H199   1.076       .  S
Cu200       N203   2.081       .  S
Cu201       N211   2.063       .  S
Cu202       N204   2.072       .  S
Cu202       N210   2.071       .  S
N203        N204   1.324       .  A
N203        C207   1.346       .  A
N204        C205   1.344       .  A
C205        C206   1.381       .  A
C205        H208   1.082       .  S
C206        C207   1.383       .  A
C206       C1342   1.473       .  S
C207        H209   1.082       .  S
N210        N211   1.318       .  A
N210        C214   1.344       .  A
N211        C212   1.342       .  A
C212        C213   1.390       .  A
C212        H215   1.081       .  S
C213        C214   1.391       .  A
C213       C1352   1.493       .  S
C214        H216   1.077       .  S
N217        N218   1.322   1_655  A
N217        C221   1.345       .  A
N217       Cu225   2.074       .  S
N218        C219   1.345       .  A
N218       Cu224   2.076       .  S
C219        C220   1.383   1_455  A
C219        H222   1.082       .  S
C220        C221   1.383       .  A
C220       C1332   1.476       .  S
C221        H223   1.082       .  S
Cu224       N227   2.076       .  S
Cu225       N235   2.073       .  S
Cu226       N228   2.076       .  S
Cu226       N234   2.076       .  S
N227        N228   1.322       .  A
N227        C231   1.345       .  A
N228        C229   1.345       .  A
C229        C230   1.386       .  A
C229        H232   1.082       .  S
C230        C231   1.386       .  A
C230       C1322   1.483       .  S
C231        H233   1.081       .  S
N234        N235   1.320   1_455  A
N234        C238   1.344       .  A
N235        C236   1.344       .  A
C236        C237   1.390       .  A
C236        H239   1.081       .  S
C237        C238   1.390   1_655  A
C237       C1425   1.493       .  S
C238        H240   1.078       .  S
N241        N242   1.321       .  A
N241        C245   1.343       .  A
N241       Cu249   2.071       .  S
N242        C243   1.345       .  A
N242       Cu248   2.085       .  S
C243        C244   1.392       .  A
C243        H246   1.081       .  S
C244        C245   1.388       .  A
C244       C1495   1.493       .  S
C245        H247   1.079       .  S
Cu248       N251   2.085       .  S
Cu249       N259   2.070       .  S
Cu250       N252   2.064       .  S
Cu250       N258   2.063       .  S
N251        N252   1.321       .  A
N251        C255   1.347       .  A
N252        C253   1.342       .  A
C253        C254   1.385       .  A
C253        H256   1.080       .  S
C254        C255   1.391       .  A
C254       C1335   1.489       .  S
C255        H257   1.082       .  S
N258        N259   1.316       .  A
N258        C262   1.342       .  A
N259        C260   1.343       .  A
C260        C261   1.396       .  A
C260        H263   1.080       .  S
C261        C262   1.392       .  A
C261       C1315   1.500       .  S
C262        H264   1.075       .  S
N265        N266   1.322   1_554  A
N265        C269   1.344       .  A
N265       Cu273   2.066       .  S
N266        C267   1.345       .  A
N266       Cu272   2.073       .  S
C267        C268   1.381   1_556  A
C267        H270   1.082       .  S
C268        C269   1.380       .  A
C268       C1305   1.468       .  S
C269        H271   1.082       .  S
Cu272       N275   2.074       .  S
Cu273       N283   2.066   1_455  S
Cu274       N276   2.073       .  S
Cu274       N282   2.073       .  S
N275        N276   1.323   1_455  A
N275        C279   1.345       .  A
N276        C277   1.345       .  A
C277        C278   1.380   1_655  A
C277        H280   1.082       .  S
C278        C279   1.380       .  A
C278       C1292   1.469       .  S
C279        H281   1.082       .  S
N282        N283   1.321   1_556  A
N282        C286   1.344       .  A
N283        C284   1.343       .  A
C284        C285   1.385       .  A
C284        H287   1.082       .  S
C285        C286   1.386   1_554  A
C285       C1312   1.482       .  S
C286        H288   1.081       .  S
N289        N290   1.322       .  A
N289        C293   1.345       .  A
N289       Cu297   2.070       .  S
N290        C291   1.344       .  A
N290       Cu296   2.067       .  S
C291        C292   1.380       .  A
C291        H294   1.082       .  S
C292        C293   1.381       .  A
C292       C1302   1.468       .  S
C293        H295   1.082       .  S
Cu296       N299   2.067       .  S
Cu297       N307   2.071       .  S
Cu298       N300   2.074       .  S
Cu298       N306   2.074       .  S
N299        N300   1.321       .  A
N299        C303   1.344       .  A
N300        C301   1.344       .  A
C301        C302   1.388       .  A
C301        H304   1.082       .  S
C302        C303   1.386       .  A
C302       C1555   1.485       .  S
C303        H305   1.080       .  S
N306        N307   1.323       .  A
N306        C310   1.345       .  A
N307        C308   1.345       .  A
C308        C309   1.380       .  A
C308        H311   1.082       .  S
C309        C310   1.380       .  A
C309       C1282   1.467       .  S
C310        H312   1.082       .  S
N313        N314   1.317   1_455  A
N313        C317   1.343       .  A
N313       Cu321   2.075   1_565  S
N314        C315   1.342       .  A
N314       Cu320   2.069       .  S
C315        C316   1.395   1_655  A
C315        H318   1.065       .  S
C316        C317   1.398       .  A
C316       C1272   1.508       .  S
C317        H319   1.079       .  S
Cu320       N323   2.069       .  S
Cu321       N331   2.075       .  S
Cu322       N324   2.071       .  S
Cu322       N330   2.071       .  S
N323        N324   1.320   1_565  A
N323        C327   1.344       .  A
N324        C325   1.345       .  A
C325        C326   1.386       .  A
C325        H328   1.081       .  S
C326        C327   1.386   1_545  A
C326       C1265   1.482       .  S
C327        H329   1.082       .  S
N330        N331   1.323   1_655  A
N330        C334   1.344       .  A
N331        C332   1.345       .  A
C332        C333   1.383       .  A
C332        H335   1.082       .  S
C333        C334   1.382   1_455  A
C333       C1285   1.475       .  S
C334        H336   1.082       .  S
N337        N338   1.322   1_565  A
N337        C341   1.345       .  A
N337       Cu345   2.073       .  S
N338        C339   1.345       .  A
N338       Cu344   2.070       .  S
C339        C340   1.380   1_545  A
C339        H342   1.082       .  S
C340        C341   1.382       .  A
C340       C1245   1.470       .  S
C341        H343   1.082       .  S
Cu344       N347   2.070       .  S
Cu345       N355   2.074       .  S
Cu346       N348   2.084       .  S
Cu346       N354   2.084       .  S
N347        N348   1.319       .  A
N347        C351   1.344       .  A
N348        C349   1.345       .  A
C349        C350   1.394       .  A
C349        H352   1.081       .  S
C350        C351   1.390       .  A
C350       C1235   1.498       .  S
C351        H353   1.077       .  S
N354        N355   1.321   1_545  A
N354        C358   1.346       .  A
N355        C356   1.343       .  A
C356        C357   1.389       .  A
C356        H359   1.081       .  S
C357        C358   1.391   1_565  A
C357       C1255   1.495       .  S
C358        H360   1.078       .  S
N361        N362   1.321       .  A
N361        C365   1.344       .  A
N361       Cu369   2.067       .  S
N362        C363   1.344       .  A
N362       Cu368   2.074       .  S
C363        C364   1.386       .  A
C363        H366   1.082       .  S
C364        C365   1.385       .  A
C364       C1275   1.481       .  S
C365        H367   1.081       .  S
Cu368       N371   2.074       .  S
Cu369       N379   2.067       .  S
Cu370       N372   2.074       .  S
Cu370       N378   2.074       .  S
N371        N372   1.321       .  A
N371        C375   1.344       .  A
N372        C373   1.344       .  A
C373        C374   1.388       .  A
C373        H376   1.080       .  S
C374        C375   1.388       .  A
C374       C1415   1.488       .  S
C375        H377   1.082       .  S
N378        N379   1.321       .  A
N378        C382   1.345       .  A
N379        C380   1.344       .  A
C380        C381   1.385       .  A
C380        H383   1.081       .  S
C381        C382   1.386       .  A
C381       C1242   1.481       .  S
C382        H384   1.082       .  S
N385        N386   1.322       .  A
N385        C389   1.344       .  A
N385       Cu393   2.072       .  S
N386        C387   1.344       .  A
N386       Cu392   2.080       .  S
C387        C388   1.388       .  A
C387        H390   1.082       .  S
C388        C389   1.386       .  A
C388       C1212   1.485       .  S
C389        H391   1.080       .  S
Cu392       N395   2.080       .  S
Cu393       N403   2.071       .  S
Cu394       N396   2.065       .  S
Cu394       N402   2.065       .  S
N395        N396   1.316       .  A
N395        C399   1.345       .  A
N396        C397   1.341       .  A
C397        C398   1.394       .  A
C397        H400   1.067       .  S
C398        C399   1.400       .  A
C398       C1202   1.509       .  S
C399        H401   1.079       .  S
N402        N403   1.318       .  A
N402        C406   1.342       .  A
N403        C404   1.344       .  A
C404        C405   1.391       .  A
C404        H407   1.081       .  S
C405        C406   1.389       .  A
C405       C1222   1.491       .  S
C406        H408   1.078       .  S
N409        N410   1.322       .  A
N409        C413   1.343       .  A
N409       Cu417   2.068       .  S
N410        C411   1.345       .  A
N410       Cu416   2.072       .  S
C411        C412   1.384       .  A
C411        H414   1.082       .  S
C412        C413   1.382       .  A
C412       C1225   1.475       .  S
C413        H415   1.082       .  S
Cu416       N419   2.073       .  S
Cu417       N427   2.068       .  S
Cu418       N420   2.077       .  S
Cu418       N426   2.077       .  S
N419        N420   1.320       .  A
N419        C423   1.343       .  A
N420        C421   1.344       .  A
C421        C422   1.390       .  A
C421        H424   1.078       .  S
C422        C423   1.390       .  A
C422       C1515   1.494       .  S
C423        H425   1.081       .  S
N426        N427   1.321       .  A
N426        C430   1.345       .  A
N427        C428   1.344       .  A
C428        C429   1.386       .  A
C428        H431   1.081       .  S
C429        C430   1.387       .  A
C429       C1252   1.485       .  S
C430        H432   1.082       .  S
N433        N434   1.321       .  A
N433        C437   1.344       .  A
N433       Cu441   2.073       .  S
N434        C435   1.343       .  A
N434       Cu440   2.066       .  S
C435        C436   1.386       .  A
C435        H438   1.080       .  S
C436        C437   1.387       .  A
C436       C1365   1.484       .  S
C437        H439   1.082       .  S
Cu440       N443   2.067       .  S
Cu441       N451   2.073       .  S
Cu442       N444   2.072       .  S
Cu442       N450   2.073       .  S
N443        N444   1.319       .  A
N443        C447   1.342       .  A
N444        C445   1.344       .  A
C445        C446   1.390       .  A
C445        H448   1.078       .  S
C446        C447   1.389       .  A
C446       C1215   1.492       .  S
C447        H449   1.081       .  S
N450        N451   1.323       .  A
N450        C454   1.345       .  A
N451        C452   1.345       .  A
C452        C453   1.380       .  A
C452        H455   1.082       .  S
C453        C454   1.380       .  A
C453       C1465   1.468       .  S
C454        H456   1.082       .  S
N457        N458   1.323       .  A
N457        C461   1.345       .  A
N457       Cu465   2.074       .  S
N458        C459   1.345       .  A
N458       Cu464   2.073       .  S
C459        C460   1.380       .  A
C459        H462   1.082       .  S
C460        C461   1.381       .  A
C460       C1395   1.468       .  S
C461        H463   1.082       .  S
Cu464       N467   2.073       .  S
Cu465       N475   2.074       .  S
Cu466       N468   2.064       .  S
Cu466       N474   2.064       .  S
N467        N468   1.321       .  A
N467        C471   1.345       .  A
N468        C469   1.343       .  A
C469        C470   1.383       .  A
C469        H472   1.081       .  S
C470        C471   1.385       .  A
C470       C1485   1.478       .  S
C471        H473   1.082       .  S
N474        N475   1.320       .  A
N474        C478   1.343       .  A
N475        C476   1.344       .  A
C476        C477   1.388       .  A
C476        H479   1.082       .  S
C477        C478   1.386       .  A
C477       C1355   1.484       .  S
C478        H480   1.080       .  S
N481        N482   1.320       .  A
N481        C485   1.343       .  A
N481       Cu489   2.071       .  S
N482        C483   1.344       .  A
N482       Cu488   2.075       .  S
C483        C484   1.389       .  A
C483        H486   1.079       .  S
C484        C485   1.388       .  A
C484       C1185   1.489       .  S
C485        H487   1.082       .  S
Cu488       N491   2.075       .  S
Cu489       N499   2.070       .  S
Cu490       N492   2.075       .  S
Cu490       N498   2.075       .  S
N491        N492   1.322       .  A
N491        C495   1.345       .  A
N492        C493   1.345       .  A
C493        C494   1.385       .  A
C493        H496   1.082       .  S
C494        C495   1.384       .  A
C494       C1375   1.479       .  S
C495        H497   1.082       .  S
N498        N499   1.322       .  A
N498        C502   1.345       .  A
N499        C500   1.345       .  A
C500        C501   1.383       .  A
C500        H503   1.082       .  S
C501        C502   1.383       .  A
C501       C1192   1.475       .  S
C502        H504   1.082       .  S
N505        N506   1.322       .  A
N505        C509   1.344       .  A
N505       Cu513   2.071   1_554  S
N506        C507   1.345       .  A
N506       Cu512   2.078       .  S
C507        C508   1.385       .  A
C507        H510   1.082       .  S
C508        C509   1.383       .  A
C508       C1162   1.477       .  S
C509        H511   1.082       .  S
Cu512       N515   2.078       .  S
Cu513       N523   2.070       .  S
Cu514       N516   2.075       .  S
Cu514       N522   2.075       .  S
N515        N516   1.321   1_554  A
N515        C519   1.345       .  A
N516        C517   1.345       .  A
C517        C518   1.387       .  A
C517        H520   1.080       .  S
C518        C519   1.388   1_556  A
C518       C1532   1.488       .  S
C519        H521   1.082       .  S
N522        N523   1.322       .  A
N522        C526   1.345       .  A
N523        C524   1.345       .  A
C524        C525   1.382       .  A
C524        H527   1.082       .  S
C525        C526   1.382       .  A
C525       C1172   1.473       .  S
C526        H528   1.082       .  S
N529        N530   1.323       .  A
N529        C533   1.345       .  A
N529       Cu537   2.072       .  S
N530        C531   1.346       .  A
N530       Cu536   2.082       .  S
C531        C532   1.384       .  A
C531        H534   1.082       .  S
C532        C533   1.383       .  A
C532       C1145   1.477       .  S
C533        H535   1.082       .  S
Cu536       N539   2.081       .  S
Cu537       N547   2.071       .  S
Cu538       N540   2.072       .  S
Cu538       N546   2.072       .  S
N539        N540   1.320       .  A
N539        C543   1.345       .  A
N540        C541   1.344       .  A
C541        C542   1.389       .  A
C541        H544   1.078       .  S
C542        C543   1.392       .  A
C542       C1345   1.495       .  S
C543        H545   1.081       .  S
N546        N547   1.322       .  A
N546        C550   1.345       .  A
N547        C548   1.345       .  A
C548        C549   1.381       .  A
C548        H551   1.082       .  S
C549        C550   1.381       .  A
C549       C1155   1.470       .  S
C550        H552   1.082       .  S
N553        N554   1.321       .  A
N553        C557   1.347       .  A
N553       Cu561   2.090       .  S
N554        C555   1.343       .  A
N554       Cu560   2.070       .  S
C555        C556   1.388       .  A
C555        H558   1.078       .  S
C556        C557   1.393       .  A
C556       C1142   1.496       .  S
C557        H559   1.081       .  S
Cu560       N563   2.069       .  S
Cu561       N571   2.090       .  S
Cu562       N564   2.066       .  S
Cu562       N570   2.067       .  S
N563        N564   1.319       .  A
N563        C567   1.344       .  A
N564        C565   1.344       .  A
C565        C566   1.387       .  A
C565        H568   1.080       .  S
C566        C567   1.388       .  A
C566       C1175   1.485       .  S
C567        H569   1.082       .  S
N570        N571   1.320       .  A
N570        C574   1.342       .  A
N571        C572   1.346       .  A
C572        C573   1.396       .  A
C572        H575   1.081       .  S
C573        C574   1.389       .  A
C573       C1132   1.500       .  S
C574        H576   1.076       .  S
N577        N578   1.322       .  A
N577        C581   1.345       .  A
N577       Cu585   2.070       .  S
N578        C579   1.345       .  A
N578       Cu584   2.075       .  S
C579        C580   1.383       .  A
C579        H582   1.082       .  S
C580        C581   1.382       .  A
C580       C1112   1.474       .  S
C581        H583   1.082       .  S
Cu584       N587   2.075       .  S
Cu585       N595   2.070       .  S
Cu586       N588   2.079       .  S
Cu586       N594   2.079       .  S
N587        N588   1.323       .  A
N587        C591   1.346       .  A
N588        C589   1.346       .  A
C589        C590   1.382       .  A
C589        H592   1.082       .  S
C590        C591   1.381       .  A
C590       C1232   1.472       .  S
C591        H593   1.082       .  S
N594        N595   1.323       .  A
N594        C598   1.346       .  A
N595        C596   1.344       .  A
C596        C597   1.381       .  A
C596        H599   1.082       .  S
C597        C598   1.383       .  A
C597       C1125   1.472       .  S
C598        H600   1.082       .  S
N601        N602   1.323       .  A
N601        C605   1.344       .  A
N601       Cu609   2.070       .  S
N602        C603   1.346       .  A
N602       Cu608   2.074       .  S
C603        C604   1.382       .  A
C603        H606   1.082       .  S
C604        C605   1.381       .  A
C604       C1122   1.471       .  S
C605        H607   1.082       .  S
Cu608       N611   2.074       .  S
Cu609       N619   2.070       .  S
Cu610       N612   2.074       .  S
Cu610       N618   2.074       .  S
N611        N612   1.323       .  A
N611        C615   1.345       .  A
N612        C613   1.345       .  A
C613        C614   1.381       .  A
C613        H616   1.082       .  S
C614        C615   1.380       .  A
C614       C1102   1.469       .  S
C615        H617   1.082       .  S
N618        N619   1.321       .  A
N618        C622   1.344       .  A
N619        C620   1.344       .  A
C620        C621   1.386       .  A
C620        H623   1.080       .  S
C621        C622   1.387       .  A
C621       C1152   1.485       .  S
C622        H624   1.082       .  S
N625        N626   1.322       .  A
N625        C629   1.344       .  A
N625       Cu633   2.066       .  S
N626        C627   1.345       .  A
N626       Cu632   2.073       .  S
C627        C628   1.381       .  A
C627        H630   1.082       .  S
C628        C629   1.380       .  A
C628       C1082   1.467       .  S
C629        H631   1.082       .  S
Cu632       N635   2.073       .  S
Cu633       N643   2.066       .  S
Cu634       N636   2.082       .  S
Cu634       N642   2.082       .  S
N635        N636   1.323       .  A
N635        C639   1.345       .  A
N636        C637   1.346       .  A
C637        C638   1.384       .  A
C637        H640   1.082       .  S
C638        C639   1.382       .  A
C638       C1325   1.476       .  S
C639        H641   1.082       .  S
N642        N643   1.320       .  A
N642        C646   1.345       .  A
N643        C644   1.343       .  A
C644        C645   1.388       .  A
C644        H647   1.078       .  S
C645        C646   1.393       .  A
C645       C1092   1.494       .  S
C646        H648   1.081       .  S
N649        N650   1.320       .  A
N649        C653   1.343       .  A
N649       Cu657   2.064   1_565  S
N650        C651   1.343       .  A
N650       Cu656   2.072       .  S
C651        C652   1.389       .  A
C651        H654   1.081       .  S
C652        C653   1.387       .  A
C652       C1072   1.486       .  S
C653        H655   1.079       .  S
Cu656       N659   2.072       .  S
Cu657       N667   2.064       .  S
Cu658       N660   2.076       .  S
Cu658       N666   2.076       .  S
N659        N660   1.323   1_565  A
N659        C663   1.345       .  A
N660        C661   1.345       .  A
C661        C662   1.384       .  A
C661        H664   1.082       .  S
C662        C663   1.383   1_545  A
C662       C1262   1.476       .  S
C663        H665   1.082       .  S
N666        N667   1.320       .  A
N666        C670   1.344       .  A
N667        C668   1.343       .  A
C668        C669   1.386       .  A
C668        H671   1.080       .  S
C669        C670   1.389       .  A
C669       C1062   1.486       .  S
C670        H672   1.082       .  S
N673        N674   1.322       .  A
N673        C677   1.343       .  A
N673       Cu681   2.063       .  S
N674        C675   1.346       .  A
N674       Cu680   2.076       .  S
C675        C676   1.384       .  A
C675        H678   1.082       .  S
C676        C677   1.381       .  A
C676       C1052   1.473       .  S
C677        H679   1.082       .  S
Cu680       N683   2.077       .  S
Cu681       N691   2.062       .  S
Cu682       N684   2.079       .  S
Cu682       N690   2.078       .  S
N683        N684   1.324       .  A
N683        C687   1.345       .  A
N684        C685   1.346       .  A
C685        C686   1.381       .  A
C685        H688   1.082       .  S
C686        C687   1.380       .  A
C686       C1205   1.470       .  S
C687        H689   1.082       .  S
N690        N691   1.317       .  A
N690        C694   1.343       .  A
N691        C692   1.342       .  A
C692        C693   1.391       .  A
C692        H695   1.074       .  S
C693        C694   1.397       .  A
C693       C1042   1.502       .  S
C694        H696   1.080       .  S
N697        N698   1.320       .  A
N697        C701   1.344       .  A
N697       Cu705   2.074   1_554  S
N698        C699   1.343       .  A
N698       Cu704   2.071       .  S
C699        C700   1.388       .  A
C699        H702   1.079       .  S
C700        C701   1.390       .  A
C700       C1022   1.490       .  S
C701        H703   1.081       .  S
Cu704       N707   2.071       .  S
Cu705       N715   2.074       .  S
Cu706       N708   2.072       .  S
Cu706       N714   2.072       .  S
N707        N708   1.320   1_554  A
N707        C711   1.344       .  A
N708        C709   1.344       .  A
C709        C710   1.387       .  A
C709        H712   1.080       .  S
C710        C711   1.387   1_556  A
C710       C1475   1.486       .  S
C711        H713   1.082       .  S
N714        N715   1.322       .  A
N714        C718   1.344       .  A
N715        C716   1.345       .  A
C716        C717   1.384       .  A
C716        H719   1.082       .  S
C717        C718   1.383       .  A
C717       C1032   1.476       .  S
C718        H720   1.082       .  S
N721        N722   1.319       .  A
N721        C725   1.344       .  A
N721       Cu729   2.077       .  S
N722        C723   1.342       .  A
N722       Cu728   2.061       .  S
C723        C724   1.387       .  A
C723        H726   1.079       .  S
C724        C725   1.391       .  A
C724       C1025   1.490       .  S
C725        H727   1.081       .  S
Cu728       N731   2.061       .  S
Cu729       N739   2.077       .  S
Cu730       N732   2.068       .  S
Cu730       N738   2.068       .  S
N731        N732   1.319       .  A
N731        C735   1.342       .  A
N732        C733   1.343       .  A
C733        C734   1.389       .  A
C733        H736   1.081       .  S
C734        C735   1.387       .  A
C734       C1075   1.487       .  S
C735        H737   1.079       .  S
N738        N739   1.322       .  A
N738        C742   1.343       .  A
N739        C740   1.344       .  A
C740        C741   1.387       .  A
C740        H743   1.082       .  S
C741        C742   1.385       .  A
C741       C1045   1.484       .  S
C742        H744   1.081       .  S
N745        N746   1.322       .  A
N745        C749   1.342       .  A
N745       Cu753   2.064       .  S
N746        C747   1.346       .  A
N746       Cu752   2.079       .  S
C747        C748   1.385       .  A
C747        H750   1.082       .  S
C748        C749   1.381       .  A
C748       C1065   1.475       .  S
C749        H751   1.082       .  S
Cu752       N755   2.079       .  S
Cu753       N763   2.064       .  S
Cu754       N756   2.071       .  S
Cu754       N762   2.070       .  S
N755        N756   1.321       .  A
N755        C759   1.344       .  A
N756        C757   1.344       .  A
C757        C758   1.388       .  A
C757        H760   1.079       .  S
C758        C759   1.390       .  A
C758       C1182   1.492       .  S
C759        H761   1.081       .  S
N762        N763   1.318       .  A
N762        C766   1.343       .  A
N763        C764   1.343       .  A
C764        C765   1.390       .  A
C764        H767   1.078       .  S
C765        C766   1.392       .  A
C765       C1012   1.493       .  S
C766        H768   1.081       .  S
N769        N770   1.323       .  A
N769        C773   1.344       .  A
N769       Cu777   2.072       .  S
N770        C771   1.346       .  A
N770       Cu776   2.078       .  S
C771        C772   1.383       .  A
C771        H774   1.082       .  S
C772        C773   1.383       .  A
C772       C1002   1.476       .  S
C773        H775   1.082       .  S
Cu776       N779   2.078       .  S
Cu777       N787   2.072   1_655  S
Cu778       N780   2.075       .  S
Cu778       N786   2.074       .  S
N779        N780   1.323   1_655  A
N779        C783   1.346       .  A
N780        C781   1.345       .  A
C781        C782   1.382   1_455  A
C781        H784   1.082       .  S
C782        C783   1.384       .  A
C782       C1405   1.475       .  S
C783        H785   1.082       .  S
N786        N787   1.321       .  A
N786        C790   1.345       .  A
N787        C788   1.344       .  A
C788        C789   1.386       .  A
C788        H791   1.082       .  S
C789        C790   1.387       .  A
C789       C1135   1.485       .  S
C790        H792   1.081       .  S
N793        N794   1.319       .  A
N793        C797   1.343       .  A
N793       Cu801   2.064       .  S
N794        C795   1.343       .  A
N794       Cu800   2.072       .  S
C795        C796   1.390       .  A
C795        H798   1.081       .  S
C796        C797   1.388       .  A
C796        C992   1.490       .  S
C797        H799   1.079       .  S
Cu800       N803   2.073       .  S
Cu801       N811   2.065       .  S
Cu802       N804   2.078       .  S
Cu802       N810   2.077       .  S
N803        N804   1.322       .  A
N803        C807   1.345       .  A
N804        C805   1.345       .  A
C805        C806   1.387       .  A
C805        H808   1.082       .  S
C806        C807   1.386       .  A
C806       C1445   1.484       .  S
C807        H809   1.081       .  S
N810        N811   1.320       .  A
N810        C814   1.345       .  A
N811        C812   1.342       .  A
C812        C813   1.386       .  A
C812        H815   1.082       .  S
C813        C814   1.389       .  A
C813       C1015   1.487       .  S
C814        H816   1.080       .  S
N817        N818   1.320       .  A
N817        C821   1.344       .  A
N817       Cu825   2.068   1_455  S
N818        C819   1.344       .  A
N818       Cu824   2.069       .  S
C819        C820   1.386       .  A
C819        H822   1.082       .  S
C820        C821   1.386       .  A
C820       C1105   1.482       .  S
C821        H823   1.081       .  S
Cu824       N827   2.069       .  S
Cu825       N835   2.068       .  S
Cu826       N828   2.081       .  S
Cu826       N834   2.081       .  S
N827        N828   1.317   1_455  A
N827        C831   1.342       .  A
N828        C829   1.344       .  A
C829        C830   1.399   1_655  A
C829        H832   1.080       .  S
C830        C831   1.394       .  A
C830       C1295   1.508       .  S
C831        H833   1.069       .  S
N834        N835   1.324       .  A
N834        C838   1.346       .  A
N835        C836   1.344       .  A
C836        C837   1.379       .  A
C836        H839   1.082       .  S
C837        C838   1.382       .  A
C837        C982   1.469       .  S
C838        H840   1.082       .  S
N841        N842   1.318       .  A
N841        C845   1.342       .  A
N841       Cu849   2.064   1_545  S
N842        C843   1.344       .  A
N842       Cu848   2.079       .  S
C843        C844   1.395       .  A
C843        H846   1.081       .  S
C844        C845   1.390       .  A
C844        C962   1.498       .  S
C845        H847   1.076       .  S
Cu848       N851   2.080       .  S
Cu849       N859   2.064       .  S
Cu850       N852   2.073       .  S
Cu850       N858   2.073       .  S
N851        N852   1.322   1_545  A
N851        C855   1.345       .  A
N852        C853   1.344       .  A
C853        C854   1.385       .  A
C853        H856   1.081       .  S
C854        C855   1.387   1_565  A
C854       C1505   1.485       .  S
C855        H857   1.082       .  S
N858        N859   1.322       .  A
N858        C862   1.345       .  A
N859        C860   1.344       .  A
C860        C861   1.380       .  A
C860        H863   1.082       .  S
C861        C862   1.383       .  A
C861        C972   1.471       .  S
C862        H864   1.082       .  S
N865        N866   1.321       .  A
N865        C869   1.344       .  A
N865       Cu873   2.070       .  S
N866        C867   1.345       .  A
N866       Cu872   2.073       .  S
C867        C868   1.385       .  A
C867        H870   1.082       .  S
C868        C869   1.385       .  A
C868        C985   1.480       .  S
C869        H871   1.081       .  S
Cu872       N875   2.073       .  S
Cu873       N883   2.069       .  S
Cu874       N876   2.070       .  S
Cu874       N882   2.070       .  S
N875        N876   1.322       .  A
N875        C879   1.344       .  A
N876        C877   1.344       .  A
C877        C878   1.384       .  A
C877        H880   1.081       .  S
C878        C879   1.384       .  A
C878        C965   1.478       .  S
C879        H881   1.082       .  S
N882        N883   1.320       .  A
N882        C886   1.343       .  A
N883        C884   1.344       .  A
C884        C885   1.387       .  A
C884        H887   1.080       .  S
C885        C886   1.388       .  A
C885        C995   1.487       .  S
C886        H888   1.082       .  S
N889        N890   1.323       .  A
N889        C893   1.345       .  A
N889       Cu897   2.073       .  S
N890        C891   1.345       .  A
N890       Cu896   2.071       .  S
C891        C892   1.380       .  A
C891        H894   1.082       .  S
C892        C893   1.381       .  A
C892       C1005   1.469       .  S
C893        H895   1.082       .  S
Cu896       N899   2.071       .  S
Cu897       N907   2.073       .  S
Cu898       N900   2.073       .  S
Cu898       N906   2.073       .  S
N899        N900   1.323       .  A
N899        C903   1.345       .  A
N900        C901   1.345       .  A
C901        C902   1.381       .  A
C901        H904   1.082       .  S
C902        C903   1.380       .  A
C902       C1035   1.467       .  S
C903        H905   1.082       .  S
N906        N907   1.321       .  A
N906        C910   1.344       .  A
N907        C908   1.344       .  A
C908        C909   1.388       .  A
C908        H911   1.079       .  S
C909        C910   1.388       .  A
C909        C975   1.488       .  S
C910        H912   1.082       .  S
N913        N914   1.321       .  A
N913        C917   1.344       .  A
N913       Cu921   2.074       .  S
N914        C915   1.344       .  A
N914       Cu920   2.072       .  S
C915        C916   1.387       .  A
C915        H918   1.080       .  S
C916        C917   1.388       .  A
C916       C1095   1.488       .  S
C917        H919   1.082       .  S
Cu920       N923   2.073       .  S
Cu921       N931   2.074       .  S
Cu922       N924   2.073       .  S
Cu922       N930   2.073       .  S
N923        N924   1.323       .  A
N923        C927   1.345       .  A
N924        C925   1.345       .  A
C925        C926   1.380       .  A
C925        H928   1.082       .  S
C926        C927   1.380       .  A
C926       C1165   1.468       .  S
C927        H929   1.082       .  S
N930        N931   1.323       .  A
N930        C934   1.345       .  A
N931        C932   1.345       .  A
C932        C933   1.380       .  A
C932        H935   1.082       .  S
C933        C934   1.380       .  A
C933       C1055   1.468       .  S
C934        H936   1.082       .  S
N937        N938   1.323       .  A
N937        C941   1.343       .  A
N937       Cu945   2.067       .  S
N938        C939   1.346       .  A
N938       Cu944   2.077       .  S
C939        C940   1.383       .  A
C939        H942   1.082       .  S
C940        C941   1.381       .  A
C940       C1085   1.472       .  S
C941        H943   1.082       .  S
Cu944       N947   2.077       .  S
Cu945       N955   2.067       .  S
Cu946       N948   2.072       .  S
Cu946       N954   2.072       .  S
N947        N948   1.321       .  A
N947        C951   1.345       .  A
N948        C949   1.343       .  A
C949        C950   1.388       .  A
C949        H952   1.079       .  S
C950        C951   1.389       .  A
C950       C1115   1.490       .  S
C951        H953   1.081       .  S
N954        N955   1.319       .  A
N954        C958   1.344       .  A
N955        C956   1.343       .  A
C956        C957   1.389       .  A
C956        H959   1.079       .  S
C957        C958   1.390       .  A
C957       C1195   1.490       .  S
C958        H960   1.081       .  S
C961        C962   1.410       .  A
C961        C966   1.398       .  A
C961        H968   1.081       .  S
C962        C963   1.422       .  A
C963        C964   1.400       .  A
C963       Br970   1.920       .  S
C964        C965   1.399       .  A
C964        H969   1.084       .  S
C965        C966   1.407       .  A
C966       Br967   1.920       .  S
C971        C972   1.399       .  A
C971        C976   1.399       .  A
C971        H978   1.084       .  S
C972        C973   1.405       .  A
C973        C974   1.398       .  A
C973       Br980   1.919       .  S
C974        C975   1.408       .  A
C974        H979   1.082       .  S
C975        C976   1.418       .  A
C976       Br977   1.920       .  S
C981        C982   1.400       .  A
C981        C986   1.399       .  A
C981        H988   1.084       .  S
C982        C983   1.405       .  A
C983        C984   1.398       .  A
C983       Br990   1.918       .  S
C984        C985   1.405       .  A
C984        H989   1.083       .  S
C985        C986   1.414       .  A
C986       Br987   1.920       .  S
C991        C992   1.406       .  A
C991        C996   1.398       .  A
C991        H998   1.082       .  S
C992        C993   1.416       .  A
C993        C994   1.399       .  A
C993      Br1000   1.920       .  S
C994        C995   1.405       .  A
C994        H999   1.083       .  S
C995        C996   1.413       .  A
C996       Br997   1.921       .  S
C1001      C1002   1.404       .  A
C1001      C1006   1.399       .  A
C1001      H1008   1.083       .  S
C1002      C1003   1.411       .  A
C1003      C1004   1.399       .  A
C1003     Br1010   1.919       .  S
C1004      C1005   1.400       .  A
C1004      H1009   1.084       .  S
C1005      C1006   1.406       .  A
C1006     Br1007   1.918       .  S
C1011      C1012   1.408       .  A
C1011      C1016   1.398       .  A
C1011      H1018   1.081       .  S
C1012      C1013   1.417       .  A
C1013      C1014   1.399       .  A
C1013     Br1020   1.921       .  S
C1014      C1015   1.405       .  A
C1014      H1019   1.082       .  S
C1015      C1016   1.412       .  A
C1016     Br1017   1.920       .  S
C1021      C1022   1.406       .  A
C1021      C1026   1.398       .  A
C1021      H1028   1.082       .  S
C1022      C1023   1.415       .  A
C1023      C1024   1.398       .  A
C1023     Br1030   1.920       .  S
C1024      C1025   1.405       .  A
C1024      H1029   1.082       .  S
C1025      C1026   1.415       .  A
C1026     Br1027   1.921       .  S
C1031      C1032   1.405       .  A
C1031      C1036   1.399       .  A
C1031      H1038   1.083       .  S
C1032      C1033   1.411       .  A
C1033      C1034   1.398       .  A
C1033     Br1040   1.919       .  S
C1034      C1035   1.400       .  A
C1034      H1039   1.084       .  S
C1035      C1036   1.405       .  A
C1036     Br1037   1.918       .  S
C1041      C1042   1.410       .  A
C1041      C1046   1.398       .  A
C1041      H1048   1.080       .  S
C1042      C1043   1.423       .  A
C1043      C1044   1.399       .  A
C1043     Br1050   1.919       .  S
C1044      C1045   1.401       .  A
C1044      H1049   1.083       .  S
C1045      C1046   1.409       .  A
C1046     Br1047   1.921       .  S
C1051      C1052   1.402       .  A
C1051      C1056   1.398       .  A
C1051      H1058   1.083       .  S
C1052      C1053   1.411       .  A
C1053      C1054   1.399       .  A
C1053     Br1060   1.919       .  S
C1054      C1055   1.400       .  A
C1054      H1059   1.084       .  S
C1055      C1056   1.406       .  A
C1056     Br1057   1.918       .  S
C1061      C1062   1.405       .  A
C1061      C1066   1.397       .  A
C1061      H1068   1.083       .  S
C1062      C1063   1.417       .  A
C1063      C1064   1.400       .  A
C1063     Br1070   1.920       .  S
C1064      C1065   1.401       .  A
C1064      H1069   1.084       .  S
C1065      C1066   1.409       .  A
C1066     Br1067   1.920       .  S
C1071      C1072   1.404       .  A
C1071      C1076   1.397       .  A
C1071      H1078   1.082       .  S
C1072      C1073   1.414       .  A
C1073      C1074   1.398       .  A
C1073     Br1080   1.921       .  S
C1074      C1075   1.405       .  A
C1074      H1079   1.082       .  S
C1075      C1076   1.415       .  A
C1076     Br1077   1.921       .  S
C1081      C1082   1.400       .  A
C1081      C1086   1.398       .  A
C1081      H1088   1.084       .  S
C1082      C1083   1.406       .  A
C1083      C1084   1.399       .  A
C1083     Br1090   1.918       .  S
C1084      C1085   1.403       .  A
C1084      H1089   1.083       .  S
C1085      C1086   1.410       .  A
C1086     Br1087   1.919       .  S
C1091      C1092   1.407       .  A
C1091      C1096   1.399       .  A
C1091      H1098   1.081       .  S
C1092      C1093   1.418       .  A
C1093      C1094   1.400       .  A
C1093     Br1100   1.920       .  S
C1094      C1095   1.404       .  A
C1094      H1099   1.083       .  S
C1095      C1096   1.413       .  A
C1096     Br1097   1.920       .  S
C1101      C1102   1.399       .  A
C1101      C1106   1.399       .  A
C1101      H1108   1.084       .  S
C1102      C1103   1.405       .  A
C1103      C1104   1.398       .  A
C1103     Br1110   1.919       .  S
C1104      C1105   1.406       .  A
C1104      H1109   1.083       .  S
C1105      C1106   1.415       .  A
C1106     Br1107   1.920       .  S
C1111      C1112   1.400       .  A
C1111      C1116   1.399       .  A
C1111      H1118   1.084       .  S
C1112      C1113   1.406       .  A
C1113      C1114   1.399       .  A
C1113     Br1120   1.919       .  S
C1114      C1115   1.408       .  A
C1114      H1119   1.082       .  S
C1115      C1116   1.418       .  A
C1116     Br1117   1.920       .  S
C1121      C1122   1.401       .  A
C1121      C1126   1.399       .  A
C1121      H1128   1.083       .  S
C1122      C1123   1.408       .  A
C1123      C1124   1.399       .  A
C1123     Br1130   1.919       .  S
C1124      C1125   1.402       .  A
C1124      H1129   1.083       .  S
C1125      C1126   1.409       .  A
C1126     Br1127   1.919       .  S
C1131      C1132   1.410       .  A
C1131      C1136   1.399       .  A
C1131      H1138   1.081       .  S
C1132      C1133   1.422       .  A
C1133      C1134   1.400       .  A
C1133     Br1140   1.920       .  S
C1134      C1135   1.402       .  A
C1134      H1139   1.083       .  S
C1135      C1136   1.410       .  A
C1136     Br1137   1.920       .  S
C1141      C1142   1.409       .  A
C1141      C1146   1.400       .  A
C1141      H1148   1.082       .  S
C1142      C1143   1.421       .  A
C1143      C1144   1.400       .  A
C1143     Br1150   1.920       .  S
C1144      C1145   1.399       .  A
C1144      H1149   1.084       .  S
C1145      C1146   1.407       .  A
C1146     Br1147   1.919       .  S
C1151      C1152   1.407       .  A
C1151      C1156   1.398       .  A
C1151      H1158   1.083       .  S
C1152      C1153   1.416       .  A
C1153      C1154   1.400       .  A
C1153     Br1160   1.920       .  S
C1154      C1155   1.400       .  A
C1154      H1159   1.084       .  S
C1155      C1156   1.405       .  A
C1156     Br1157   1.919       .  S
C1161      C1162   1.405       .  A
C1161      C1166   1.399       .  A
C1161      H1168   1.083       .  S
C1162      C1163   1.411       .  A
C1163      C1164   1.400       .  A
C1163     Br1170   1.919       .  S
C1164      C1165   1.401       .  A
C1164      H1169   1.084       .  S
C1165      C1166   1.405       .  A
C1166     Br1167   1.918       .  S
C1171      C1172   1.400       .  A
C1171      C1176   1.399       .  A
C1171      H1178   1.084       .  S
C1172      C1173   1.406       .  A
C1173      C1174   1.398       .  A
C1173     Br1180   1.919       .  S
C1174      C1175   1.407       .  A
C1174      H1179   1.083       .  S
C1175      C1176   1.415       .  A
C1176     Br1177   1.920       .  S
C1181      C1182   1.406       .  A
C1181      C1186   1.399       .  A
C1181      H1188   1.082       .  S
C1182      C1183   1.416       .  A
C1183      C1184   1.399       .  A
C1183     Br1190   1.921       .  S
C1184      C1185   1.405       .  A
C1184      H1189   1.082       .  S
C1185      C1186   1.414       .  A
C1186     Br1187   1.920       .  S
C1191      C1192   1.400       .  A
C1191      C1196   1.400       .  A
C1191      H1198   1.084       .  S
C1192      C1193   1.407       .  A
C1193      C1194   1.398       .  A
C1193     Br1200   1.920       .  S
C1194      C1195   1.408       .  A
C1194      H1199   1.082       .  S
C1195      C1196   1.418       .  A
C1196     Br1197   1.920       .  S
C1201      C1202   1.415       .  A
C1201      C1206   1.399       .  A
C1201      H1208   1.078       .  S
C1202      C1203   1.429       .  A
C1203      C1204   1.401       .  A
C1203     Br1210   1.918       .  S
C1204      C1205   1.394       .  A
C1204      H1209   1.084       .  S
C1205      C1206   1.399       .  A
C1206     Br1207   1.919       .  S
C1211      C1212   1.403       .  A
C1211      C1216   1.398       .  A
C1211      H1218   1.083       .  S
C1212      C1213   1.412       .  A
C1213      C1214   1.398       .  A
C1213     Br1220   1.921       .  S
C1214      C1215   1.408       .  A
C1214      H1219   1.082       .  S
C1215      C1216   1.417       .  A
C1216     Br1217   1.920       .  S
C1221      C1222   1.409       .  A
C1221      C1226   1.399       .  A
C1221      H1228   1.082       .  S
C1222      C1223   1.419       .  A
C1223      C1224   1.397       .  A
C1223     Br1230   1.920       .  S
C1224      C1225   1.400       .  A
C1224      H1229   1.084       .  S
C1225      C1226   1.406       .  A
C1226     Br1227   1.919       .  S
C1231      C1232   1.397       .  A
C1231      C1236   1.401       .  A
C1231      H1238   1.084       .  S
C1232      C1233   1.402       .  A
C1233      C1234   1.399       .  A
C1233     Br1240   1.918       .  S
C1234      C1235   1.411       .  A
C1234      H1239   1.081       .  S
C1235      C1236   1.423       .  A
C1236     Br1237   1.919       .  S
C1241      C1242   1.405       .  A
C1241      C1246   1.398       .  A
C1241      H1248   1.083       .  S
C1242      C1243   1.414       .  A
C1243      C1244   1.400       .  A
C1243     Br1250   1.920       .  S
C1244      C1245   1.400       .  A
C1244      H1249   1.084       .  S
C1245      C1246   1.405       .  A
C1246     Br1247   1.918       .  S
C1251      C1252   1.403       .  A
C1251      C1256   1.400       .  A
C1251      H1258   1.083       .  S
C1252      C1253   1.411       .  A
C1253      C1254   1.399       .  A
C1253     Br1260   1.921       .  S
C1254      C1255   1.409       .  A
C1254      H1259   1.082       .  S
C1255      C1256   1.418       .  A
C1256     Br1257   1.919   1_565  S
C1261      C1262   1.402   1_565  A
C1261      C1266   1.400       .  A
C1261      H1268   1.084       .  S
C1262      C1263   1.408       .  A
C1263      C1264   1.398       .  A
C1263     Br1270   1.919       .  S
C1264      C1265   1.405       .  A
C1264      H1269   1.083       .  S
C1265      C1266   1.414   1_545  A
C1266     Br1267   1.920       .  S
C1271      C1272   1.414       .  A
C1271      C1276   1.399       .  A
C1271      H1278   1.078       .  S
C1272      C1273   1.426       .  A
C1273      C1274   1.399       .  A
C1273     Br1280   1.918   1_455  S
C1274      C1275   1.398       .  A
C1274      H1279   1.083       .  S
C1275      C1276   1.406       .  A
C1276     Br1277   1.921       .  S
C1281      C1282   1.400       .  A
C1281      C1286   1.399       .  A
C1281      H1288   1.084       .  S
C1282      C1283   1.405       .  A
C1283      C1284   1.399       .  A
C1283     Br1290   1.918       .  S
C1284      C1285   1.404       .  A
C1284      H1289   1.083       .  S
C1285      C1286   1.411       .  A
C1286     Br1287   1.919       .  S
C1291      C1292   1.394       .  A
C1291      C1296   1.401       .  A
C1291      H1298   1.084       .  S
C1292      C1293   1.399   1_455  A
C1293      C1294   1.398       .  A
C1293     Br1300   1.919       .  S
C1294      C1295   1.415   1_655  A
C1294      H1299   1.079       .  S
C1295      C1296   1.429       .  A
C1296     Br1297   1.918       .  S
C1301      C1302   1.402       .  A
C1301      C1306   1.399       .  A
C1301      H1308   1.083       .  S
C1302      C1303   1.407       .  A
C1303      C1304   1.398       .  A
C1303     Br1310   1.919       .  S
C1304      C1305   1.401       .  A
C1304      H1309   1.083       .  S
C1305      C1306   1.407       .  A
C1306     Br1307   1.919       .  S
C1311      C1312   1.401       .  A
C1311      C1316   1.399       .  A
C1311      H1318   1.083       .  S
C1312      C1313   1.408       .  A
C1313      C1314   1.397       .  A
C1313     Br1320   1.921   1_554  S
C1314      C1315   1.411       .  A
C1314      H1319   1.080       .  S
C1315      C1316   1.422       .  A
C1316     Br1317   1.920       .  S
C1321      C1322   1.405       .  A
C1321      C1326   1.399       .  A
C1321      H1328   1.083       .  S
C1322      C1323   1.414       .  A
C1323      C1324   1.400       .  A
C1323     Br1330   1.919       .  S
C1324      C1325   1.401       .  A
C1324      H1329   1.083       .  S
C1325      C1326   1.408       .  A
C1326     Br1327   1.919       .  S
C1331      C1332   1.400       .  A
C1331      C1336   1.399       .  A
C1331      H1338   1.084       .  S
C1332      C1333   1.407       .  A
C1333      C1334   1.400       .  A
C1333     Br1340   1.919       .  S
C1334      C1335   1.407       .  A
C1334      H1339   1.082       .  S
C1335      C1336   1.417       .  A
C1336     Br1337   1.921       .  S
C1341      C1342   1.398       .  A
C1341      C1346   1.401       .  A
C1341      H1348   1.084       .  S
C1342      C1343   1.404       .  A
C1343      C1344   1.398       .  A
C1343     Br1350   1.919       .  S
C1344      C1345   1.410       .  A
C1344      H1349   1.082       .  S
C1345      C1346   1.422       .  A
C1346     Br1347   1.919       .  S
C1351      C1352   1.408       .  A
C1351      C1356   1.397       .  A
C1351      H1358   1.081       .  S
C1352      C1353   1.418       .  A
C1353      C1354   1.399       .  A
C1353     Br1360   1.919       .  S
C1354      C1355   1.403       .  A
C1354      H1359   1.083       .  S
C1355      C1356   1.411       .  A
C1356     Br1357   1.921       .  S
C1361      C1362   1.409       .  A
C1361      C1366   1.398       .  A
C1361      H1368   1.080       .  S
C1362      C1363   1.421       .  A
C1363      C1364   1.399       .  A
C1363     Br1370   1.920       .  S
C1364      C1365   1.402       .  A
C1364      H1369   1.083       .  S
C1365      C1366   1.411       .  A
C1366     Br1367   1.921       .  S
C1371      C1372   1.405       .  A
C1371      C1376   1.399       .  A
C1371      H1378   1.083       .  S
C1372      C1373   1.413       .  A
C1373      C1374   1.400       .  A
C1373     Br1380   1.919       .  S
C1374      C1375   1.403       .  A
C1374      H1379   1.083       .  S
C1375      C1376   1.409       .  A
C1376     Br1377   1.920       .  S
C1381      C1382   1.408       .  A
C1381      C1386   1.399       .  A
C1381      H1388   1.081       .  S
C1382      C1383   1.419       .  A
C1383      C1384   1.400       .  A
C1383     Br1390   1.920       .  S
C1384      C1385   1.403       .  A
C1384      H1389   1.083       .  S
C1385      C1386   1.413       .  A
C1386     Br1387   1.921       .  S
C1391      C1392   1.404       .  A
C1391      C1396   1.399       .  A
C1391      H1398   1.083       .  S
C1392      C1393   1.410       .  A
C1393      C1394   1.399       .  A
C1393     Br1400   1.919       .  S
C1394      C1395   1.400       .  A
C1394      H1399   1.083       .  S
C1395      C1396   1.405       .  A
C1396     Br1397   1.918       .  S
C1401      C1402   1.407       .  A
C1401      C1406   1.399       .  A
C1401      H1408   1.083       .  S
C1402      C1403   1.417       .  A
C1403      C1404   1.401       .  A
C1403     Br1410   1.920   1_655  S
C1404      C1405   1.400       .  A
C1404      H1409   1.084       .  S
C1405      C1406   1.406       .  A
C1406     Br1407   1.919       .  S
C1411      C1412   1.407       .  A
C1411      C1416   1.399       .  A
C1411      H1418   1.082       .  S
C1412      C1413   1.417       .  A
C1413      C1414   1.400       .  A
C1413     Br1420   1.920       .  S
C1414      C1415   1.404       .  A
C1414      H1419   1.083       .  S
C1415      C1416   1.413       .  A
C1416     Br1417   1.920       .  S
C1421      C1422   1.400       .  A
C1421      C1426   1.399       .  A
C1421      H1428   1.084       .  S
C1422      C1423   1.406       .  A
C1423      C1424   1.399       .  A
C1423     Br1430   1.920       .  S
C1424      C1425   1.410       .  A
C1424      H1429   1.082       .  S
C1425      C1426   1.419       .  A
C1426     Br1427   1.919   1_655  S
C1431      C1432   1.400       .  A
C1431      C1436   1.399       .  A
C1431      H1438   1.084       .  S
C1432      C1433   1.405       .  A
C1433      C1434   1.399       .  A
C1433     Br1440   1.918       .  S
C1434      C1435   1.405       .  A
C1434      H1439   1.083       .  S
C1435      C1436   1.412       .  A
C1436     Br1437   1.920       .  S
C1441      C1442   1.403       .  A
C1441      C1446   1.400       .  A
C1441      H1448   1.083       .  S
C1442      C1443   1.410       .  A
C1443      C1444   1.399       .  A
C1443     Br1450   1.920       .  S
C1444      C1445   1.405       .  A
C1444      H1449   1.083       .  S
C1445      C1446   1.414       .  A
C1446     Br1447   1.920       .  S
C1451      C1452   1.407       .  A
C1451      C1456   1.397       .  A
C1451      H1458   1.082       .  S
C1452      C1453   1.418       .  A
C1453      C1454   1.399       .  A
C1453     Br1460   1.920       .  S
C1454      C1455   1.400       .  A
C1454      H1459   1.084       .  S
C1455      C1456   1.406       .  A
C1456     Br1457   1.919       .  S
C1461      C1462   1.405       .  A
C1461      C1466   1.399       .  A
C1461      H1468   1.083       .  S
C1462      C1463   1.413       .  A
C1463      C1464   1.398       .  A
C1463     Br1470   1.920       .  S
C1464      C1465   1.399       .  A
C1464      H1469   1.084       .  S
C1465      C1466   1.406       .  A
C1466     Br1467   1.918       .  S
C1471      C1472   1.401       .  A
C1471      C1476   1.399       .  A
C1471      H1478   1.084       .  S
C1472      C1473   1.407   1_556  A
C1473      C1474   1.399       .  A
C1473     Br1480   1.919       .  S
C1474      C1475   1.407   1_554  A
C1474      H1479   1.083       .  S
C1475      C1476   1.416       .  A
C1476     Br1477   1.919       .  S
C1481      C1482   1.409       .  A
C1481      C1486   1.397       .  A
C1481      H1488   1.081       .  S
C1482      C1483   1.421       .  A
C1483      C1484   1.400       .  A
C1483     Br1490   1.919       .  S
C1484      C1485   1.400       .  A
C1484      H1489   1.084       .  S
C1485      C1486   1.408       .  A
C1486     Br1487   1.920       .  S
C1491      C1492   1.404       .  A
C1491      C1496   1.399       .  A
C1491      H1498   1.083       .  S
C1492      C1493   1.412       .  A
C1493      C1494   1.399       .  A
C1493     Br1500   1.920       .  S
C1494      C1495   1.407       .  A
C1494      H1499   1.082       .  S
C1495      C1496   1.417       .  A
C1496     Br1497   1.920       .  S
C1501      C1502   1.401       .  A
C1501      C1506   1.399       .  A
C1501      H1508   1.084       .  S
C1502      C1503   1.408   1_565  A
C1503      C1504   1.399       .  A
C1503     Br1510   1.919       .  S
C1504      C1505   1.406   1_545  A
C1504      H1509   1.083       .  S
C1505      C1506   1.415       .  A
C1506     Br1507   1.920       .  S
C1511      C1512   1.400       .  A
C1511      C1516   1.400       .  A
C1511      H1518   1.084       .  S
C1512      C1513   1.407       .  A
C1513      C1514   1.399       .  A
C1513     Br1520   1.920       .  S
C1514      C1515   1.409       .  A
C1514      H1519   1.082       .  S
C1515      C1516   1.419       .  A
C1516     Br1517   1.919       .  S
C1521      C1522   1.405       .  A
C1521      C1526   1.399       .  A
C1521      H1528   1.083       .  S
C1522      C1523   1.413       .  A
C1523      C1524   1.398       .  A
C1523     Br1530   1.920       .  S
C1524      C1525   1.407       .  A
C1524      H1529   1.082       .  S
C1525      C1526   1.416       .  A
C1526     Br1527   1.921       .  S
C1531      C1532   1.408   1_554  A
C1531      C1536   1.399       .  A
C1531      H1538   1.083       .  S
C1532      C1533   1.417       .  A
C1533      C1534   1.400       .  A
C1533     Br1540   1.919       .  S
C1534      C1535   1.400       .  A
C1534      H1539   1.084       .  S
C1535      C1536   1.406   1_556  A
C1536     Br1537   1.919       .  S
C1541      C1542   1.401       .  A
C1541      C1546   1.399       .  A
C1541      H1548   1.084       .  S
C1542      C1543   1.406       .  A
C1543      C1544   1.399       .  A
C1543     Br1550   1.918   1_556  S
C1544      C1545   1.405       .  A
C1544      H1549   1.083       .  S
C1545      C1546   1.413       .  A
C1546     Br1547   1.920       .  S
C1551      C1552   1.409       .  A
C1551      C1556   1.399       .  A
C1551      H1558   1.081       .  S
C1552      C1553   1.419       .  A
C1553      C1554   1.399       .  A
C1553     Br1560   1.920   1_545  S
C1554      C1555   1.402       .  A
C1554      H1559   1.083       .  S
C1555      C1556   1.411       .  A
C1556     Br1557   1.921       .  S
