geometry optimzed in LAMMPS
_audit_creation_date              2020-11-30 
_audit_creation_method            'lammps2cif' 
_symmetry_space_group_name_H-M    'P1' 
_symmetry_Int_Tables_number       1 
_symmetry_cell_setting            triclinic 
loop_ 
_symmetry_equiv_pos_as_xyz 
  x,y,z 
_cell_length_a                    38.49734434 
_cell_length_b                    38.56566446251297 
_cell_length_c                    33.86362294496114 
_cell_angle_alpha                 90.07653270359346 
_cell_angle_beta                  89.73803492270164 
_cell_angle_gamma                 89.96881463538236 
loop_ 
_atom_site_label 
_atom_site_type_symbol 
_atom_site_fract_x 
_atom_site_fract_y 
_atom_site_fract_z 
_atom_site_charge 
C1          C  0.17623592  0.49824109  0.16384279     0.78700
N2          N  0.15872589  0.49722896  0.19885903    -0.79600
C3          C  0.12346659  0.99544726  0.19994299     0.81200
N4          N  0.10547976  0.99498443  0.16565997    -0.79500
C5          C  0.12278262  0.99570778  0.13078985     0.81200
N6          N  0.15775303  0.49799341  0.12983436    -0.81200
C7          C  0.32772781  0.50544128  0.16619637     0.78700
N8          N  0.34510933  0.50635630  0.13108293    -0.79600
C9          C  0.38029053  0.00746233  0.12928841     0.81200
N10         N  0.39845646  0.00841572  0.16343139    -0.79500
C11         C  0.38139228  0.00737411  0.19844291     0.81300
N12         N  0.34633356  0.50584844  0.20011054    -0.81200
C13         C  0.00548769  0.17644911  0.16453236     0.78700
N14         N  0.00724390  0.15794746  0.13046250    -0.79600
C15         C  0.00918088  0.12290072  0.13120619     0.81200
N16         N  0.00938324  0.10594022  0.16622172    -0.79500
C17         C  0.00784572  0.12408768  0.20051063     0.81300
N18         N  0.00581946  0.15927463  0.19968126    -0.81200
C19         C  0.99918348  0.32715116  0.16467808     0.78700
N20         N  0.99751016  0.34552136  0.19884984    -0.79600
C21         C  0.99481310  0.38052810  0.19827079     0.81200
N22         N  0.99377612  0.39756920  0.16333106    -0.79500
C23         C  0.99529508  0.37953816  0.12896750     0.81300
N24         N  0.99811638  0.34441962  0.12963054    -0.81200
N25         N  0.07846616  0.01509097  0.04361316    -0.07600
N26         N  0.09555606  0.02613818  0.07484816    -0.59700
N27         N  0.07494511  0.48016942  0.28564743    -0.07300
N28         N  0.09188769  0.46745702  0.25489298    -0.61800
N29         N  0.07650485  0.01432853  0.28627013    -0.06900
N30         N  0.09517051  0.02554489  0.25610541    -0.59700
N31         N  0.07533960  0.48124880  0.04397571    -0.06600
N32         N  0.09134007  0.46836003  0.07507091    -0.62200
C33         C  0.10380073  0.99658006  0.09388454     0.94600
C34         C  0.10467127  0.99607629  0.23736259     0.94400
N35         N  0.48006251  0.42813441  0.28514698    -0.07800
N36         N  0.46709292  0.41212962  0.25403023    -0.60300
N37         N  0.01504176  0.42654481  0.04305643    -0.05900
N38         N  0.02590917  0.40773516  0.07311390    -0.61500
N39         N  0.48083176  0.42861635  0.04314385    -0.07800
N40         N  0.46773572  0.41142660  0.07347064    -0.60600
N41         N  0.01420690  0.42606473  0.28507323    -0.05500
N42         N  0.02524649  0.40839168  0.25407684    -0.61600
Mn43       Mn  0.04530256  0.45174268  0.33080872     1.18400
C44         C  0.99562978  0.39990871  0.23517759     0.96700
C45         C  0.99619997  0.39828701  0.09154115     0.97300
N46         N  0.02204630  0.07509544  0.28642186    -0.07800
N47         N  0.03514622  0.09235628  0.25615137    -0.64100
N48         N  0.49034779  0.07719177  0.04446487    -0.06600
N49         N  0.47909773  0.09473852  0.07545365    -0.64800
N50         N  0.02446806  0.07535484  0.04438206    -0.07300
N51         N  0.03722919  0.09152549  0.07550938    -0.64400
N52         N  0.48786938  0.07717790  0.28651805    -0.06200
N53         N  0.47702999  0.09597780  0.25641845    -0.65100
Mn54       Mn  0.04980917  0.04512965  0.33182736     1.10700
C55         C  0.00680316  0.10542402  0.23803626     0.97900
C56         C  0.00860644  0.10345581  0.09433313     0.98000
N57         N  0.42647715  0.48942928  0.04320457    -0.07300
N58         N  0.40797189  0.47822927  0.07350018    -0.62700
N59         N  0.42787822  0.02230076  0.28548456    -0.06700
N60         N  0.41229345  0.03515106  0.25409566    -0.59400
N61         N  0.42641869  0.48861265  0.28603391    -0.08000
N62         N  0.40901917  0.47757607  0.25501767    -0.62300
N63         N  0.42958145  0.02290847  0.04369289    -0.07000
N64         N  0.41214768  0.03553710  0.07415298    -0.59500
Mn65       Mn  0.45208596  0.45717161  0.33124838     1.20200
Mn66       Mn  0.45648299  0.05031714  0.33156820     1.10100
Cl67       Cl  0.00066569  0.00100599  0.33132660    -0.87400
C68         C  0.39894744  0.00698178  0.09173471     0.94900
C69         C  0.40063885  0.00663581  0.23516697     0.94700
C70         C  0.48686768  0.27009886  0.13398830    -0.21800
C71         C  0.00146261  0.28861705  0.16539621    -0.08300
C72         C  0.01807112  0.26998167  0.19611864     0.12500
C73         C  0.01880635  0.23359050  0.19474469    -0.21800
C74         C  0.00371457  0.21500623  0.16355346    -0.08400
C75         C  0.48769087  0.23372501  0.13256519     0.12500
C76         C  0.47008392  0.21586784  0.09840488    -0.25200
H77         H  0.47406810  0.28415708  0.11049431     0.13800
H78         H  0.03168672  0.21950210  0.21816350     0.13800
C79         C  0.03608003  0.28787941  0.22997140    -0.25100
H80         H  0.45654219  0.23458497  0.07888365     0.04000
H81         H  0.45038256  0.19726507  0.10962156     0.07300
H82         H  0.48958499  0.20212769  0.07991764     0.07300
H83         H  0.01679780  0.30154982  0.24881443     0.07200
H84         H  0.05556272  0.30655564  0.21841587     0.07200
H85         H  0.04995045  0.26918651  0.24922073     0.04000
C86         C  0.27165858  0.99549700  0.13091028    -0.21800
C87         C  0.28892242  0.50353937  0.16693106    -0.08300
C88         C  0.26853869  0.50747918  0.20178566     0.12500
C89         C  0.23221368  0.50563058  0.19929153    -0.21800
C90         C  0.21503870  0.50011350  0.16325831    -0.08400
C91         C  0.23534592  0.99354948  0.12870907     0.12500
C92         C  0.21967563  0.98568366  0.08888232    -0.25200
H93         H  0.28669542  0.99135272  0.10420836     0.13800
H94         H  0.21709573  0.50877633  0.22610107     0.13800
C95         C  0.28409191  0.51408427  0.24195883    -0.25100
H96         H  0.23981979  0.98123855  0.06583055     0.04000
H97         H  0.20371007  0.00793007  0.07883260     0.07300
H98         H  0.20369567  0.96177664  0.09061591     0.07300
H99         H  0.29976741  0.53823351  0.24135529     0.07200
H100        H  0.30036216  0.49170429  0.25094438     0.07200
H101        H  0.26388000  0.51746500  0.26516824     0.04000
C102        C  0.17584859  0.49400429  0.49656666     0.78700
N103        N  0.15828431  0.49435496  0.53154080    -0.79600
C104        C  0.12254810  0.99498442  0.53237705     0.81200
N105        N  0.10446578  0.99399199  0.49818877    -0.79500
C106        C  0.12166602  0.99432598  0.46323400     0.81200
N107        N  0.15737045  0.49382993  0.46251111    -0.81200
C108        C  0.32740693  0.50170760  0.49986254     0.78700
N109        N  0.34474903  0.50339013  0.46478233    -0.79600
C110        C  0.37945037  0.00664065  0.46399848     0.81200
N111        N  0.39763104  0.00808803  0.49814128    -0.79500
C112        C  0.38060194  0.00722709  0.53323619     0.81300
N113        N  0.34600532  0.50280191  0.53382009    -0.81200
C114        C  0.00358891  0.17575649  0.49748703     0.78700
N115        N  0.00413906  0.15724338  0.46336191    -0.79600
C116        C  0.00630206  0.12218933  0.46405142     0.81200
N117        N  0.00806038  0.10525804  0.49901861    -0.79500
C118        C  0.00768390  0.12343322  0.53330625     0.81300
N119        N  0.00529209  0.15856512  0.53254210    -0.81200
C120        C  0.99964949  0.32663739  0.49861739     0.78700
N121        N  0.99920840  0.34511554  0.53276789    -0.79600
C122        C  0.99721426  0.38017808  0.53216285     0.81200
N123        N  0.99545266  0.39716200  0.49720625    -0.79500
C124        C  0.99569723  0.37901120  0.46287396     0.81300
N125        N  0.99794995  0.34386794  0.46359148    -0.81200
N126        N  0.07560035  0.01372644  0.37708707    -0.07600
N127        N  0.09341404  0.02472336  0.40782625    -0.59700
N128        N  0.07608702  0.48010056  0.61974657    -0.07300
N129        N  0.09249041  0.46707853  0.58880403    -0.61800
N130        N  0.07741256  0.01451928  0.61963524    -0.06900
N131        N  0.09529023  0.02554063  0.58878699    -0.59700
N132        N  0.07447039  0.47943019  0.37673092    -0.06600
N133        N  0.09076761  0.46629574  0.40750081    -0.62200
C134        C  0.10232338  0.99514285  0.42645511     0.94600
C135        C  0.10408811  0.99594301  0.56988900     0.94400
N136        N  0.48190372  0.42773584  0.61890231    -0.07800
N137        N  0.46927795  0.41170711  0.58763160    -0.60300
N138        N  0.01418981  0.42509166  0.37602209    -0.05900
N139        N  0.02543814  0.40673479  0.40623503    -0.61500
N140        N  0.48009240  0.42720998  0.37660590    -0.07800
N141        N  0.46739660  0.41036291  0.40742448    -0.60600
N142        N  0.01598529  0.42566964  0.61932755    -0.05500
N143        N  0.02734177  0.40808823  0.58837528    -0.61600
Mn144      Mn  0.04661783  0.45190309  0.66519300     1.18400
C145        C  0.99789720  0.39957175  0.56911185     0.96700
C146        C  0.99598759  0.39754472  0.42528964     0.97300
N147        N  0.02313457  0.07532073  0.61961562    -0.07800
N148        N  0.03590797  0.09221830  0.58887748    -0.64100
N149        N  0.48717464  0.07619846  0.37746770    -0.06600
N150        N  0.47592109  0.09408470  0.40822023    -0.64800
N151        N  0.02137791  0.07406457  0.37769359    -0.07300
N152        N  0.03412271  0.09032919  0.40873475    -0.64400
N153        N  0.48905401  0.07721703  0.61998339    -0.06200
N154        N  0.47784324  0.09555251  0.58974664    -0.65100
Mn155      Mn  0.05119338  0.04562313  0.66521350     1.10700
C156        C  0.00731056  0.10489930  0.57086108     0.97900
C157        C  0.00553873  0.10268297  0.42723788     0.98000
N158        N  0.42573858  0.48816246  0.37678784    -0.07300
N159        N  0.40735184  0.47696670  0.40715798    -0.62700
N160        N  0.42881767  0.02260319  0.61936635    -0.06700
N161        N  0.41245251  0.03531161  0.58836740    -0.59400
N162        N  0.42744317  0.48780105  0.61913781    -0.08000
N163        N  0.40945979  0.47652891  0.58864983    -0.62300
N164        N  0.42678316  0.02181988  0.37685431    -0.07000
N165        N  0.41031911  0.03452247  0.40796933    -0.59500
Mn166      Mn  0.45337849  0.45676150  0.66460018     1.20200
Mn167      Mn  0.45796294  0.05076881  0.66520168     1.10100
Cl168      Cl  0.00198257  0.00151728  0.66513937    -0.87400
C169        C  0.39783521  0.00600287  0.42626720     0.94900
C170        C  0.40012338  0.00674122  0.57001418     0.94700
C171        C  0.48612452  0.26986346  0.46766868    -0.21800
C172        C  0.00105244  0.28802953  0.49926934    -0.08300
C173        C  0.01704056  0.26892170  0.53003961     0.12500
C174        C  0.01723347  0.23254776  0.52831731    -0.21800
C175        C  0.00213692  0.21436089  0.49679987    -0.08400
C176        C  0.48632992  0.23348295  0.46593402     0.12500
C177        C  0.46864332  0.21617278  0.43146742    -0.25200
H178        H  0.47368676  0.28425612  0.44418851     0.13800
H179        H  0.02975375  0.21816174  0.55175086     0.13800
C180        C  0.03495057  0.28623511  0.56435386    -0.25100
H181        H  0.45554652  0.23525362  0.41200706     0.04000
H182        H  0.44855327  0.19783311  0.44234657     0.07300
H183        H  0.48803440  0.20224302  0.41301308     0.07300
H184        H  0.01568428  0.30016213  0.58297686     0.07200
H185        H  0.05496749  0.30457587  0.55329886     0.07200
H186        H  0.04818544  0.26715782  0.58369684     0.04000
C187        C  0.27105865  0.99541234  0.46456375    -0.21800
C188        C  0.28863431  0.49861369  0.50042862    -0.08300
C189        C  0.26808952  0.50164208  0.53525231     0.12500
C190        C  0.23178939  0.49970949  0.53250507    -0.21800
C191        C  0.21472467  0.49490473  0.49624936    -0.08400
C192        C  0.23474662  0.99366116  0.46175488     0.12500
C193        C  0.21942222  0.98682477  0.42152462    -0.25200
H194        H  0.28631178  0.99189828  0.43791007     0.13800
H195        H  0.21660576  0.50240051  0.55932441     0.13800
C196        C  0.28344233  0.50736973  0.57569231    -0.25100
H197        H  0.23976531  0.98315226  0.39852566     0.04000
H198        H  0.20335059  0.00923373  0.41217415     0.07300
H199        H  0.20359536  0.96277760  0.42224156     0.07300
H200        H  0.29857698  0.53185893  0.57608792     0.07200
H201        H  0.30019053  0.48507789  0.58380871     0.07200
H202        H  0.26314404  0.50961005  0.59897955     0.04000
C203        C  0.17716496  0.49870984  0.83031175     0.78700
N204        N  0.15972296  0.49836673  0.86537134    -0.79600
C205        C  0.12508362  0.99654334  0.86555812     0.81200
N206        N  0.10711113  0.99503617  0.83128002    -0.79500
C207        C  0.12432260  0.99527593  0.79628759     0.81200
N208        N  0.15875072  0.49727599  0.79624523    -0.81200
C209        C  0.32828549  0.50518549  0.83280325     0.78700
N210        N  0.34568194  0.50515279  0.79772551    -0.79600
C211        C  0.38097680  0.00801889  0.79752490     0.81200
N212        N  0.39899964  0.00962737  0.83173243    -0.79500
C213        C  0.38183709  0.00918200  0.86672667     0.81300
N214        N  0.34671174  0.50717833  0.86681037    -0.81200
C215        C  0.00051387  0.17622020  0.83167509     0.78700
N216        N  0.00245023  0.15822853  0.79720843    -0.79600
C217        C  0.00751284  0.12341716  0.79733377     0.81200
N218        N  0.01063610  0.10628360  0.83207484    -0.79500
C219        C  0.00869285  0.12398175  0.86663436     0.81300
N220        N  0.00339743  0.15874800  0.86638555    -0.81200
C221        C  0.99509858  0.32694385  0.83345363     0.78700
N222        N  0.99538655  0.34590318  0.86725116    -0.79600
C223        C  0.99611032  0.38097815  0.86598401     0.81200
N224        N  0.99623540  0.39753557  0.83074820    -0.79500
C225        C  0.99557413  0.37896372  0.79675787     0.81300
N226        N  0.99510334  0.34374840  0.79807728    -0.81200
N227        N  0.07736249  0.01434512  0.71049160    -0.07600
N228        N  0.09570764  0.02541969  0.74081122    -0.59700
N229        N  0.07636729  0.48155836  0.95275881    -0.07300
N230        N  0.09318955  0.46873860  0.92196462    -0.61800
N231        N  0.07933048  0.01557389  0.95270523    -0.06900
N232        N  0.09747048  0.02675689  0.92210892    -0.59700
N233        N  0.07551168  0.48026147  0.71092709    -0.06600
N234        N  0.09197885  0.46756899  0.74183655    -0.62200
C235        C  0.10486314  0.99590674  0.75946584     0.94600
C236        C  0.10645717  0.99727222  0.90307823     0.94400
N237        N  0.48149877  0.42949823  0.95198249    -0.07800
N238        N  0.46862198  0.41311157  0.92111605    -0.60300
N239        N  0.01532162  0.42532164  0.71043196    -0.05900
N240        N  0.02625208  0.40689463  0.74076884    -0.61500
N241        N  0.48121255  0.42707457  0.71020782    -0.07800
N242        N  0.46815498  0.40984073  0.74051823    -0.60600
N243        N  0.01569302  0.42747527  0.95209599    -0.05500
N244        N  0.02681716  0.40955329  0.92129959    -0.61600
Mn245      Mn  0.04651096  0.45326446  0.99798557     1.18400
C246        C  0.99719831  0.40081809  0.90252047     0.96700
C247        C  0.99654910  0.39712698  0.75898151     0.97300
N248        N  0.02473250  0.07605797  0.95289335    -0.07800
N249        N  0.03736798  0.09264262  0.92185724    -0.64100
N250        N  0.48888088  0.07702783  0.71080000    -0.06600
N251        N  0.47763941  0.09528418  0.74127539    -0.64800
N252        N  0.02293597  0.07485801  0.71113281    -0.07300
N253        N  0.03564817  0.09134539  0.74208470    -0.64400
N254        N  0.49066632  0.07814542  0.95357738    -0.06200
N255        N  0.47933652  0.09624855  0.92324218    -0.65100
Mn256      Mn  0.05278399  0.04642335  0.99832676     1.10700
C257        C  0.00865691  0.10517052  0.90395213     0.97900
C258        C  0.00704709  0.10407107  0.76029847     0.98000
N259        N  0.42673511  0.48782379  0.70992979    -0.07300
N260        N  0.40848806  0.47678137  0.74050079    -0.62700
N261        N  0.43043598  0.02370854  0.95255812    -0.06700
N262        N  0.41373292  0.03674407  0.92199940    -0.59400
N263        N  0.42751985  0.48992497  0.95237960    -0.08000
N264        N  0.40988600  0.47889609  0.92152962    -0.62300
N265        N  0.42857130  0.02257372  0.71070201    -0.07000
N266        N  0.41208251  0.03551087  0.74163657    -0.59500
Mn267      Mn  0.45314157  0.45855212  0.99773157     1.20200
Mn268      Mn  0.45945210  0.05144532  0.99863734     1.10100
Cl269      Cl  0.00356857  0.00226133  0.99804836    -0.87400
C270        C  0.39952714  0.00711185  0.76005647     0.94900
C271        C  0.40132762  0.00834919  0.90341453     0.94700
C272        C  0.48054765  0.27013542  0.80289792    -0.21800
C273        C  0.99505089  0.28832192  0.83485695    -0.08300
C274        C  0.01004709  0.26920225  0.86627364     0.12500
C275        C  0.01077618  0.23288577  0.86423639    -0.21800
C276        C  0.99704322  0.21469864  0.83191427    -0.08400
C277        C  0.48117129  0.23373721  0.80100724     0.12500
C278        C  0.46394367  0.21623711  0.76638342    -0.25200
H279        H  0.46848053  0.28451247  0.77915540     0.13800
H280        H  0.02299728  0.21857834  0.88793136     0.13800
C281        C  0.02652661  0.28639157  0.90160745    -0.25100
H282        H  0.45041241  0.23515317  0.74710277     0.04000
H283        H  0.44429734  0.19735239  0.77710804     0.07300
H284        H  0.48364704  0.20286972  0.74783004     0.07300
H285        H  0.00652600  0.30046365  0.91906541     0.07200
H286        H  0.04718064  0.30455135  0.89176079     0.07200
H287        H  0.03871339  0.26725259  0.92174518     0.04000
C288        C  0.27197833  0.01774097  0.80143297    -0.21800
C289        C  0.28960522  0.50340804  0.83339842    -0.08300
C290        C  0.27008733  0.49166953  0.86644258     0.12500
C291        C  0.23373354  0.49035728  0.86402295    -0.21800
C292        C  0.21587705  0.50039666  0.82975946    -0.08400
C293        C  0.23563784  0.01659079  0.79891679     0.12500
C294        C  0.21850607  0.03360625  0.76395178    -0.25200
H295        H  0.28657522  0.03030836  0.77805533     0.13800
H296        H  0.21912805  0.48109171  0.88930320     0.13800
C297        C  0.28684161  0.47967060  0.90425524    -0.25100
H298        H  0.23766031  0.04694649  0.74461484     0.04000
H299        H  0.19949529  0.05332797  0.77427896     0.07300
H300        H  0.20529048  0.01381094  0.74558056     0.07300
H301        H  0.30021869  0.50168196  0.91883823     0.07200
H302        H  0.30556911  0.45845999  0.89790302     0.07200
H303        H  0.26745840  0.46951388  0.92570533     0.04000
C304        C  0.17628944  0.99713087  0.16422345     0.78700
N305        N  0.15872127  0.99657496  0.19924609    -0.79600
C306        C  0.12353172  0.49543683  0.19963608     0.81200
N307        N  0.10547423  0.49479692  0.16542241    -0.79500
C308        C  0.12266552  0.49601100  0.13050688     0.81200
N309        N  0.15786826  0.99705435  0.13021036    -0.81200
C310        C  0.32771998  0.00469976  0.16545867     0.78700
N311        N  0.34507034  0.00554294  0.13028571    -0.79600
C312        C  0.38029351  0.50824668  0.13007560     0.81200
N313        N  0.39848219  0.50906363  0.16421141    -0.79500
C314        C  0.38142024  0.50792997  0.19923861     0.81300
N315        N  0.34634094  0.00522097  0.19932669    -0.81200
C316        C  0.00521631  0.67655848  0.16481876     0.78700
N317        N  0.00637822  0.65812620  0.13067858    -0.79600
C318        C  0.00837191  0.62308725  0.13130210     0.81200
N319        N  0.00929519  0.60606826  0.16626820    -0.79500
C320        C  0.00836234  0.62416411  0.20062374     0.81300
N321        N  0.00622315  0.65934436  0.19991288    -0.81200
C322        C  0.00001468  0.82714223  0.16459648     0.78700
N323        N  0.99808938  0.84553996  0.19872484    -0.79600
C324        C  0.99553523  0.88055236  0.19804435     0.81200
N325        N  0.99493702  0.89755209  0.16306012    -0.79500
C326        C  0.99673867  0.87946364  0.12874869     0.81300
N327        N  0.99933637  0.84433605  0.12950012    -0.81200
N328        N  0.07743928  0.51530705  0.04386767    -0.07600
N329        N  0.09499958  0.52636985  0.07475897    -0.59700
N330        N  0.07457899  0.98026454  0.28584884    -0.07300
N331        N  0.09177472  0.96755092  0.25526833    -0.61800
N332        N  0.07711611  0.51421716  0.28624803    -0.06900
N333        N  0.09571777  0.52542745  0.25604883    -0.59700
N334        N  0.07646452  0.98102913  0.04359264    -0.06600
N335        N  0.09208938  0.96811499  0.07491419    -0.62200
C336        C  0.10345055  0.49682902  0.09372313     0.94600
C337        C  0.10487868  0.49597711  0.23708304     0.94400
N338        N  0.47985924  0.92800384  0.28485975    -0.07800
N339        N  0.46722716  0.91201063  0.25354465    -0.60300
N340        N  0.01638205  0.92626046  0.04266932    -0.05900
N341        N  0.02732619  0.90756687  0.07278800    -0.61500
N342        N  0.48233938  0.92833376  0.04279604    -0.07800
N343        N  0.46930247  0.91115796  0.07315180    -0.60600
N344        N  0.01404172  0.92601961  0.28510311    -0.05500
N345        N  0.02538552  0.90849931  0.25414430    -0.61600
Mn346      Mn  0.04481178  0.95180308  0.33097622     1.18400
C347        C  0.99595726  0.89995231  0.23493725     0.96700
C348        C  0.99764637  0.89811454  0.09127637     0.97300
N349        N  0.02296236  0.57520050  0.28651445    -0.07800
N350        N  0.03597426  0.59235609  0.25610200    -0.64100
N351        N  0.48932117  0.57763628  0.04427365    -0.06600
N352        N  0.47811479  0.59527161  0.07523045    -0.64800
N353        N  0.02344959  0.57566500  0.04438323    -0.07300
N354        N  0.03623153  0.59168829  0.07558443    -0.64400
N355        N  0.48882580  0.57730658  0.28665063    -0.06200
N356        N  0.47787957  0.59607942  0.25659487    -0.65100
Mn357      Mn  0.05071839  0.54512406  0.33189185     1.10700
C358        C  0.00756468  0.60545653  0.23812221     0.97900
C359        C  0.00765187  0.60373713  0.09437008     0.98000
N360        N  0.42755688  0.98885468  0.04306732    -0.07300
N361        N  0.40855428  0.97756733  0.07293386    -0.62700
N362        N  0.42857360  0.52266642  0.28593181    -0.06700
N363        N  0.41277316  0.53557279  0.25470739    -0.59400
N364        N  0.42590471  0.98823788  0.28552603    -0.08000
N365        N  0.40886201  0.97712826  0.25429673    -0.62300
N366        N  0.42856428  0.52348232  0.04368766    -0.07000
N367        N  0.41166868  0.53620172  0.07449018    -0.59500
Mn368      Mn  0.45143997  0.95688185  0.33086216     1.20200
Mn369      Mn  0.45750661  0.55060935  0.33184266     1.10100
Cl370      Cl  0.00140766  0.50116913  0.33148989    -0.87400
C371        C  0.39878205  0.50768762  0.09244882     0.94900
C372        C  0.40074637  0.50711477  0.23595865     0.94700
C373        C  0.48569795  0.77018999  0.13492537    -0.21800
C374        C  0.00192631  0.78865060  0.16543672    -0.08300
C375        C  0.01927509  0.77004016  0.19560852     0.12500
C376        C  0.01969187  0.73364559  0.19441147    -0.21800
C377        C  0.00350283  0.71508788  0.16392160    -0.08400
C378        C  0.48608896  0.73380717  0.13372085     0.12500
C379        C  0.46683454  0.71592171  0.10076041    -0.25200
H380        H  0.47211277  0.78431106  0.11205499     0.13800
H381        H  0.03320911  0.71954050  0.21734833     0.13800
C382        C  0.03842660  0.78801234  0.22857923    -0.25100
H383        H  0.45253058  0.73465502  0.08197470     0.04000
H384        H  0.44756434  0.69748409  0.11323754     0.07300
H385        H  0.48537237  0.70197322  0.08122859     0.07300
H386        H  0.01982702  0.80196701  0.24802707     0.07200
H387        H  0.05767431  0.80647915  0.21610929     0.07200
H388        H  0.05272652  0.76932671  0.24742752     0.04000
C389        C  0.27173569  0.49799691  0.13092926    -0.21800
C390        C  0.28894499  0.00255744  0.16647251    -0.08300
C391        C  0.26869531  0.00760995  0.20127001     0.12500
C392        C  0.23236867  0.00551100  0.19910992    -0.21800
C393        C  0.21508577  0.99866875  0.16347471    -0.08400
C394        C  0.23542805  0.49634558  0.12839211     0.12500
C395        C  0.21990691  0.49030870  0.08808426    -0.25200
H396        H  0.28683684  0.49483497  0.10410594     0.13800
H397        H  0.21732200  0.00961795  0.22580754     0.13800
C398        C  0.28439010  0.01575381  0.24100754    -0.25100
H399        H  0.24012794  0.48716873  0.06484295     0.04000
H400        H  0.20374527  0.51287695  0.07944473     0.07300
H401        H  0.20415242  0.46620962  0.08823688     0.07300
H402        H  0.30011346  0.03982215  0.23911777     0.07200
H403        H  0.30063844  0.99371675  0.25106412     0.07200
H404        H  0.26425752  0.02006522  0.26410748     0.04000
C405        C  0.17528918  0.99646307  0.49661288     0.78700
N406        N  0.15772556  0.99627020  0.53157385    -0.79600
C407        C  0.12308079  0.49424249  0.53238159     0.81200
N408        N  0.10497457  0.49383807  0.49818787    -0.79500
C409        C  0.12218399  0.49351951  0.46322468     0.81200
N410        N  0.15682654  0.99582447  0.46254091    -0.81200
C411        C  0.32689292  0.00372896  0.50012242     0.78700
N412        N  0.34430597  0.00440047  0.46504228    -0.79600
C413        C  0.37980304  0.50684188  0.46378572     0.81200
N414        N  0.39795689  0.50834952  0.49791403    -0.79500
C415        C  0.38100926  0.50638691  0.53296335     0.81300
N416        N  0.34548428  0.00477211  0.53410078    -0.81200
C417        C  0.00396377  0.67610862  0.49769146     0.78700
N418        N  0.00501953  0.65768232  0.46351068    -0.79600
C419        C  0.00751490  0.62264739  0.46408138     0.81200
N420        N  0.00901156  0.60562714  0.49900295    -0.79500
C421        C  0.00812717  0.62367985  0.53336208     0.81300
N422        N  0.00545036  0.65880740  0.53270886    -0.81200
C423        C  0.99807692  0.82704743  0.49899339     0.78700
N424        N  0.99744854  0.84569690  0.53301982    -0.79600
C425        C  0.99556728  0.88076303  0.53218457     0.81200
N426        N  0.99416163  0.89759250  0.49711724    -0.79500
C427        C  0.99456536  0.87927127  0.46291168     0.81300
N428        N  0.99668470  0.84413336  0.46386030    -0.81200
N429        N  0.07641976  0.51349715  0.37703633    -0.07600
N430        N  0.09413841  0.52431261  0.40793441    -0.59700
N431        N  0.07538664  0.98046242  0.61946912    -0.07300
N432        N  0.09169310  0.96753933  0.58841271    -0.61800
N433        N  0.07786955  0.51417820  0.61958969    -0.06900
N434        N  0.09563488  0.52509799  0.58858930    -0.59700
N435        N  0.07372427  0.97965948  0.37698619    -0.06600
N436        N  0.09015254  0.96670014  0.40777120    -0.62200
C437        C  0.10290818  0.49461787  0.42642349     0.94600
C438        C  0.10466013  0.49542086  0.56996393     0.94400
N439        N  0.48091724  0.92838838  0.61907223    -0.07800
N440        N  0.46802383  0.91243619  0.58789122    -0.60300
N441        N  0.01352965  0.92508432  0.37603438    -0.05900
N442        N  0.02464530  0.90686393  0.40641797    -0.61500
N443        N  0.47929827  0.92705866  0.37632102    -0.07800
N444        N  0.46642993  0.91027561  0.40708028    -0.60600
N445        N  0.01498243  0.92634729  0.61906532    -0.05500
N446        N  0.02608478  0.90876338  0.58800638    -0.61600
Mn447      Mn  0.04601781  0.95223668  0.66486146     1.18400
C448        C  0.99649533  0.90032922  0.56899019     0.96700
C449        C  0.99509356  0.89760168  0.42523448     0.97300
N450        N  0.02339983  0.57498039  0.61930624    -0.07800
N451        N  0.03621603  0.59220386  0.58882633    -0.64100
N452        N  0.48842713  0.57649816  0.37752316    -0.06600
N453        N  0.47727783  0.59460170  0.40814982    -0.64800
N454        N  0.02251895  0.57426004  0.37784091    -0.07300
N455        N  0.03533725  0.59064119  0.40877866    -0.64400
N456        N  0.48936029  0.57683573  0.61946710    -0.06200
N457        N  0.47820806  0.59537823  0.58934627    -0.65100
Mn458      Mn  0.05141080  0.54537691  0.66499946     1.10700
C459        C  0.00764460  0.60495847  0.57082662     0.97900
C460        C  0.00679236  0.60319550  0.42721603     0.98000
N461        N  0.42480577  0.98775160  0.37646652    -0.07300
N462        N  0.40678492  0.97654423  0.40714938    -0.62700
N463        N  0.42938634  0.52186564  0.61880238    -0.06700
N464        N  0.41290204  0.53452985  0.58788348    -0.59400
N465        N  0.42676572  0.98854697  0.61968711    -0.08000
N466        N  0.40887623  0.97733056  0.58908913    -0.62300
N467        N  0.42782810  0.52222244  0.37724384    -0.07000
N468        N  0.41109913  0.53493805  0.40817453    -0.59500
Mn469      Mn  0.45278643  0.95738912  0.66502539     1.20200
Mn470      Mn  0.45821378  0.55019247  0.66466423     1.10100
Cl471      Cl  0.00238935  0.50102661  0.66495191    -0.87400
C472        C  0.39829315  0.50640842  0.42618564     0.94900
C473        C  0.40058013  0.50592545  0.56963073     0.94700
C474        C  0.48584805  0.77013142  0.46763323    -0.21800
C475        C  0.99972373  0.78842589  0.49981319    -0.08300
C476        C  0.01489333  0.76942904  0.53121829     0.12500
C477        C  0.01566279  0.73305420  0.52936507    -0.21800
C478        C  0.00195735  0.71473439  0.49711183    -0.08400
C479        C  0.48670746  0.73376770  0.46572498     0.12500
C480        C  0.47029661  0.71636703  0.43050300    -0.25200
H481        H  0.47383453  0.78439691  0.44377032     0.13800
H482        H  0.02756544  0.71878329  0.55329839     0.13800
C483        C  0.03132525  0.78684943  0.56641708    -0.25100
H484        H  0.45745400  0.73533508  0.41068370     0.04000
H485        H  0.45020146  0.69765777  0.44050761     0.07300
H486        H  0.49043039  0.70286020  0.41267802     0.07300
H487        H  0.01123364  0.80054727  0.58411477     0.07200
H488        H  0.05156511  0.80539866  0.55638957     0.07200
H489        H  0.04400834  0.76787260  0.58635327     0.04000
C490        C  0.27160360  0.49314519  0.46426782    -0.21800
C491        C  0.28805442  0.00149979  0.50061751    -0.08300
C492        C  0.26744555  0.00570821  0.53523256     0.12500
C493        C  0.23112274  0.00394478  0.53242912    -0.21800
C494        C  0.21413528  0.99805198  0.49632136    -0.08400
C495        C  0.23528115  0.49132999  0.46150425     0.12500
C496        C  0.21988954  0.48550568  0.42110320    -0.25200
H497        H  0.28682593  0.49039583  0.43747411     0.13800
H498        H  0.21586477  0.00744494  0.55907774     0.13800
C499        C  0.28278247  0.01244282  0.57547551    -0.25100
H500        H  0.24019919  0.48232952  0.39796923     0.04000
H501        H  0.20386720  0.50817506  0.41247772     0.07300
H502        H  0.20399728  0.46149501  0.42109882     0.07300
H503        H  0.29837835  0.03664115  0.57491296     0.07200
H504        H  0.29909844  0.99013197  0.58458488     0.07200
H505        H  0.26245073  0.01578229  0.59855535     0.04000
C506        C  0.17773184  0.99880671  0.82983901     0.78700
N507        N  0.16024434  0.99850571  0.86482861    -0.79600
C508        C  0.12454137  0.49645419  0.86623167     0.81200
N509        N  0.10646608  0.49518332  0.83201650    -0.79500
C510        C  0.12360998  0.49556914  0.79700012     0.81200
N511        N  0.15949367  0.99717039  0.79562103    -0.81200
C512        C  0.32842335  0.00527409  0.83331845     0.78700
N513        N  0.34585285  0.00573773  0.79831048    -0.79600
C514        C  0.38083722  0.50726257  0.79678331     0.81200
N515        N  0.39894941  0.50911532  0.83092588    -0.79500
C516        C  0.38183481  0.50913805  0.86595486     0.81300
N517        N  0.34669339  0.00697681  0.86749124    -0.81200
C518        C  0.00256279  0.67613883  0.83087712     0.78700
N519        N  0.00391427  0.65787041  0.79657905    -0.79600
C520        C  0.00740857  0.62289053  0.79700214     0.81200
N521        N  0.00965197  0.60584266  0.83188214    -0.79500
C522        C  0.00840452  0.62382061  0.86629309     0.81300
N523        N  0.00464972  0.65879094  0.86575511    -0.81200
C524        C  0.99773749  0.82696274  0.83269791     0.78700
N525        N  0.99791772  0.84576219  0.86661716    -0.79600
C526        C  0.99740528  0.88085640  0.86556626     0.81200
N527        N  0.99642127  0.89756918  0.83044965    -0.79500
C528        C  0.99593548  0.87913576  0.79636663     0.81300
N529        N  0.99675502  0.84393994  0.79746305    -0.81200
N530        N  0.07744181  0.51433530  0.71060109    -0.07600
N531        N  0.09533702  0.52557464  0.74119318    -0.59700
N532        N  0.07732610  0.98151522  0.95232582    -0.07300
N533        N  0.09389516  0.96877152  0.92132231    -0.61800
N534        N  0.07840113  0.51561599  0.95305983    -0.06900
N535        N  0.09679686  0.52671963  0.92262825    -0.59700
N536        N  0.07537413  0.98027086  0.71063818    -0.06600
N537        N  0.09224701  0.96742352  0.74120353    -0.62200
C538        C  0.10422115  0.49614321  0.76018809     0.94600
C539        C  0.10595498  0.49719644  0.90379105     0.94400
N540        N  0.48294283  0.92939080  0.95164096    -0.07800
N541        N  0.47011759  0.91294991  0.92078519    -0.60300
N542        N  0.01487258  0.92564310  0.71005280    -0.05900
N543        N  0.02601166  0.90706964  0.74014355    -0.61500
N544        N  0.48081533  0.92749435  0.71037711    -0.07800
N545        N  0.46799090  0.91023245  0.74080627    -0.60600
N546        N  0.01690179  0.92726430  0.95174628    -0.05500
N547        N  0.02804691  0.90931892  0.92097996    -0.61600
Mn548      Mn  0.04770061  0.95307422  0.99758648     1.18400
C549        C  0.99844294  0.90058751  0.90217727     0.96700
C550        C  0.99646094  0.89743208  0.75870341     0.97300
N551        N  0.02388801  0.57622302  0.95289956    -0.07800
N552        N  0.03667819  0.59270558  0.92188170    -0.64100
N553        N  0.48890278  0.57654218  0.71037575    -0.06600
N554        N  0.47756202  0.59456494  0.74099129    -0.64800
N555        N  0.02293452  0.57458313  0.71071932    -0.07300
N556        N  0.03556555  0.59109019  0.74168370    -0.64400
N557        N  0.48979617  0.57828185  0.95333454    -0.06200
N558        N  0.47864174  0.59633437  0.92286168    -0.65100
Mn559      Mn  0.05178736  0.54659922  0.99848596     1.10700
C560        C  0.00807937  0.60524985  0.90377430     0.97900
C561        C  0.00690017  0.60346167  0.76005126     0.98000
N562        N  0.42653633  0.98851229  0.71055396    -0.07300
N563        N  0.40843227  0.97751160  0.74123703    -0.62700
N564        N  0.42950104  0.52398307  0.95238833    -0.06700
N565        N  0.41333729  0.53690843  0.92139195    -0.59400
N566        N  0.42855351  0.98964452  0.95237011    -0.08000
N567        N  0.41042999  0.97872198  0.92183511    -0.62300
N568        N  0.42866482  0.52189374  0.71006218    -0.07000
N569        N  0.41193529  0.53478245  0.74086460    -0.59500
Mn570      Mn  0.45445954  0.95822457  0.99750330     1.20200
Mn571      Mn  0.45843103  0.55182050  0.99846514     1.10100
Cl572      Cl  0.00249700  0.50255696  0.99821505    -0.87400
C573        C  0.39933508  0.50636125  0.75922420     0.94900
C574        C  0.40123102  0.50844447  0.90269105     0.94700
C575        C  0.48432735  0.77020587  0.80165355    -0.21800
C576        C  0.99833691  0.78832901  0.83375462    -0.08300
C577        C  0.01309066  0.76912939  0.86526121     0.12500
C578        C  0.01371889  0.73279883  0.86317397    -0.21800
C579        C  0.00008167  0.71469087  0.83073320    -0.08400
C580        C  0.48482445  0.73383614  0.79965746     0.12500
C581        C  0.46798803  0.71655706  0.76463172    -0.25200
H582        H  0.47250822  0.78463504  0.77779398     0.13800
H583        H  0.02556785  0.71840101  0.88704417     0.13800
C584        C  0.02922529  0.78623346  0.90084911    -0.25100
H585        H  0.45498826  0.73561942  0.74506674     0.04000
H586        H  0.44795052  0.69788535  0.77488956     0.07300
H587        H  0.48786766  0.70300546  0.74649329     0.07300
H588        H  0.00904641  0.80018544  0.91816441     0.07200
H589        H  0.04990686  0.80448557  0.89130634     0.07200
H590        H  0.04129325  0.76704676  0.92102114     0.04000
C591        C  0.27176196  0.51341447  0.79913981    -0.21800
C592        C  0.28985929  0.00344524  0.83362218    -0.08300
C593        C  0.27056417  0.98734595  0.86426920     0.12500
C594        C  0.23420793  0.98618284  0.86175133    -0.21800
C595        C  0.21632277  0.00050698  0.82956277    -0.08400
C596        C  0.23542331  0.51211975  0.79671418     0.12500
C597        C  0.21874197  0.52411590  0.75885857    -0.25200
H598        H  0.28637953  0.52268035  0.77385814     0.13800
H599        H  0.21960606  0.97362532  0.88512099     0.13800
C600        C  0.28773767  0.97035570  0.89922593    -0.25100
H601        H  0.23816483  0.53421177  0.73741469     0.04000
H602        H  0.20006646  0.54538435  0.76514672     0.07300
H603        H  0.20534357  0.50211363  0.74428306     0.07300
H604        H  0.30095451  0.99016578  0.91757706     0.07200
H605        H  0.30676459  0.95065147  0.88888846     0.07200
H606        H  0.26860348  0.95700612  0.91857723     0.04000
C607        C  0.67620807  0.49816809  0.16376808     0.78700
N608        N  0.65868209  0.49719997  0.19877595    -0.79600
C609        C  0.62348276  0.99550660  0.20002516     0.81200
N610        N  0.60551228  0.99506343  0.16572940    -0.79500
C611        C  0.62282660  0.99582060  0.13086616     0.81200
N612        N  0.65772752  0.49779860  0.12976014    -0.81200
C613        C  0.82775421  0.50539016  0.16622980     0.78700
N614        N  0.84515990  0.50626100  0.13112871    -0.79600
C615        C  0.88027243  0.00754594  0.12937089     0.81200
N616        N  0.89844055  0.00839726  0.16351591    -0.79500
C617        C  0.88137747  0.00734267  0.19852884     0.81300
N618        N  0.84634965  0.50593884  0.20014775    -0.81200
C619        C  0.50565794  0.17651855  0.16455256     0.78700
N620        N  0.50736669  0.15798831  0.13050202    -0.79600
C621        C  0.50917623  0.12293835  0.13127317     0.81200
N622        N  0.50931678  0.10599837  0.16629897    -0.79500
C623        C  0.50784043  0.12417209  0.20057116     0.81300
N624        N  0.50592959  0.15936513  0.19971617    -0.81200
C625        C  0.49928037  0.32721586  0.16465809     0.78700
N626        N  0.49755750  0.34558447  0.19882381    -0.79600
C627        C  0.49473880  0.38057970  0.19824011     0.81200
N628        N  0.49362922  0.39761562  0.16329939    -0.79500
C629        C  0.49520107  0.37958340  0.12893942     0.81300
N630        N  0.49815390  0.34447807  0.12961061    -0.81200
N631        N  0.57851342  0.01520789  0.04368197    -0.07600
N632        N  0.59559345  0.02625447  0.07492509    -0.59700
N633        N  0.57490732  0.48015348  0.28555966    -0.07300
N634        N  0.59184392  0.46742029  0.25481404    -0.61800
N635        N  0.57644649  0.01438060  0.28631065    -0.06900
N636        N  0.59514292  0.02559792  0.25617009    -0.59700
N637        N  0.57527984  0.48114473  0.04391260    -0.06600
N638        N  0.59129189  0.46821834  0.07497851    -0.62200
C639        C  0.60385192  0.99669527  0.09395249     0.94600
C640        C  0.60466155  0.99613062  0.23743414     0.94400
N641        N  0.98010062  0.42813434  0.28514475    -0.07800
N642        N  0.96714693  0.41210104  0.25403740    -0.60300
N643        N  0.51494648  0.42650799  0.04297813    -0.05900
N644        N  0.52580762  0.40771760  0.07305204    -0.61500
N645        N  0.98092490  0.42862172  0.04321055    -0.07800
N646        N  0.96783435  0.41138703  0.07350639    -0.60600
N647        N  0.51416830  0.42606676  0.28505165    -0.05500
N648        N  0.52519318  0.40841922  0.25403199    -0.61600
Mn649      Mn  0.54528818  0.45175274  0.33074967     1.18400
C650        C  0.49556762  0.39995672  0.23514127     0.96700
C651        C  0.49609780  0.39832023  0.09150805     0.97300
N652        N  0.52198785  0.07516152  0.28646516    -0.07800
N653        N  0.53510520  0.09244683  0.25622430    -0.64100
N654        N  0.99033701  0.07714327  0.04440747    -0.06600
N655        N  0.97910112  0.09471906  0.07538038    -0.64800
N656        N  0.52448009  0.07542815  0.04444129    -0.07300
N657        N  0.53722883  0.09158875  0.07557934    -0.64400
N658        N  0.98792776  0.07711133  0.28649850    -0.06200
N659        N  0.97707144  0.09589063  0.25638948    -0.65100
Mn660      Mn  0.54973255  0.04517540  0.33186429     1.10700
C661        C  0.50677323  0.10552999  0.23810351     0.97900
C662        C  0.50859859  0.10348093  0.09441412     0.98000
N663        N  0.92653881  0.48940915  0.04327886    -0.07300
N664        N  0.90804293  0.47820363  0.07357887    -0.62700
N665        N  0.92793354  0.02223600  0.28552484    -0.06700
N666        N  0.91231394  0.03509146  0.25416315    -0.59400
N667        N  0.92644711  0.48864694  0.28604938    -0.08000
N668        N  0.90903583  0.47764516  0.25502679    -0.62300
N669        N  0.92954678  0.02289476  0.04373269    -0.07000
N670        N  0.91213106  0.03556018  0.07418763    -0.59500
Mn671      Mn  0.95209923  0.45716312  0.33124732     1.20200
Mn672      Mn  0.95656173  0.05025925  0.33158048     1.10100
Cl673      Cl  0.50058552  0.00105921  0.33132656    -0.87400
C674        C  0.89893083  0.00702656  0.09181584     0.94900
C675        C  0.90063284  0.00658194  0.23524713     0.94700
C676        C  0.98650255  0.27003319  0.13411972    -0.21800
C677        C  0.50164074  0.28868726  0.16537420    -0.08300
C678        C  0.51811107  0.27005824  0.19620049     0.12500
C679        C  0.51887678  0.23366738  0.19482050    -0.21800
C680        C  0.50394085  0.21507835  0.16353308    -0.08400
C681        C  0.98730112  0.23365367  0.13270060     0.12500
C682        C  0.96950674  0.21578238  0.09867805    -0.25200
H683        H  0.97359346  0.28410048  0.11070984     0.13800
H684        H  0.53163848  0.21958337  0.21832650     0.13800
C685        C  0.53592294  0.28795610  0.23018943    -0.25100
H686        H  0.95584928  0.23449343  0.07925371     0.04000
H687        H  0.94987814  0.19717334  0.11004618     0.07300
H688        H  0.98890601  0.20204007  0.08005539     0.07300
H689        H  0.51652888  0.30159810  0.24891032     0.07200
H690        H  0.55545040  0.30665477  0.21878043     0.07200
H691        H  0.54970739  0.26926657  0.24952293     0.04000
C692        C  0.77169439  0.99489557  0.13118677    -0.21800
C693        C  0.78893226  0.50347553  0.16693894    -0.08300
C694        C  0.76857736  0.50591265  0.20199839     0.12500
C695        C  0.73225368  0.50409948  0.19946022    -0.21800
C696        C  0.71502584  0.50005637  0.16320443    -0.08400
C697        C  0.73538341  0.99289494  0.12900726     0.12500
C698        C  0.71972507  0.98409337  0.08942974    -0.25200
H699        H  0.78676843  0.99013278  0.10464318     0.13800
H700        H  0.71718565  0.50605015  0.22644811     0.13800
C701        C  0.78414215  0.51074789  0.24249100    -0.25100
H702        H  0.73988157  0.97899096  0.06656824     0.04000
H703        H  0.70386659  0.00614030  0.07862976     0.07300
H704        H  0.70363076  0.96031369  0.09192401     0.07300
H705        H  0.79954936  0.53505921  0.24336724     0.07200
H706        H  0.80066443  0.48813577  0.25003713     0.07200
H707        H  0.76394989  0.51281786  0.26591899     0.04000
C708        C  0.67586771  0.49403024  0.49646658     0.78700
N709        N  0.65829200  0.49437074  0.53143183    -0.79600
C710        C  0.62253075  0.99496957  0.53237157     0.81200
N711        N  0.60443619  0.99399882  0.49819225    -0.79500
C712        C  0.62162525  0.99433633  0.46323148     0.81200
N713        N  0.65740530  0.49388350  0.46239920    -0.81200
C714        C  0.82741111  0.50163107  0.49987200     0.78700
N715        N  0.84476633  0.50332233  0.46480303    -0.79600
C716        C  0.87944150  0.00660174  0.46395676     0.81200
N717        N  0.89761377  0.00808652  0.49810181    -0.79500
C718        C  0.88057877  0.00724153  0.53319120     0.81300
N719        N  0.84599394  0.50268229  0.53384257    -0.81200
C720        C  0.50359797  0.17576288  0.49750454     0.78700
N721        N  0.50408134  0.15723699  0.46339016    -0.79600
C722        C  0.50620024  0.12218289  0.46409015     0.81200
N723        N  0.50799147  0.10525871  0.49905821    -0.79500
C724        C  0.50768477  0.12344366  0.53333899     0.81300
N725        N  0.50533014  0.15857944  0.53256498    -0.81200
C726        C  0.49975829  0.32665077  0.49858080     0.78700
N727        N  0.49928983  0.34513122  0.53272893    -0.79600
C728        C  0.49725625  0.38019128  0.53211756     0.81200
N729        N  0.49548535  0.39717021  0.49716116    -0.79500
C730        C  0.49576278  0.37901827  0.46283291     0.81300
N731        N  0.49805441  0.34387813  0.46355292    -0.81200
N732        N  0.57551414  0.01376322  0.37712402    -0.07600
N733        N  0.59335051  0.02475148  0.40785043    -0.59700
N734        N  0.57612647  0.48013334  0.61964876    -0.07300
N735        N  0.59249920  0.46710945  0.58868582    -0.61800
N736        N  0.57744778  0.01450628  0.61965533    -0.06900
N737        N  0.59530080  0.02552633  0.58878972    -0.59700
N738        N  0.57448084  0.47945850  0.37663189    -0.06600
N739        N  0.59079297  0.46633635  0.40739748    -0.62200
C740        C  0.60226796  0.99516553  0.42646362     0.94600
C741        C  0.60408811  0.99592786  0.56988948     0.94400
N742        N  0.98187191  0.42766688  0.61899638    -0.07800
N743        N  0.96924602  0.41165735  0.58771282    -0.60300
N744        N  0.51420263  0.42511815  0.37599010    -0.05900
N745        N  0.52546949  0.40674546  0.40618056    -0.61500
N746        N  0.98007874  0.42717745  0.37660735    -0.07800
N747        N  0.96736456  0.41034089  0.40742479    -0.60600
N748        N  0.51601587  0.42572365  0.61924380    -0.05500
N749        N  0.52737281  0.40811345  0.58831519    -0.61600
Mn750      Mn  0.54665307  0.45194397  0.66510059     1.18400
C751        C  0.49792976  0.39959324  0.56905508     0.96700
C752        C  0.49603022  0.39755252  0.42525388     0.97300
N753        N  0.52317557  0.07531696  0.61963273    -0.07800
N754        N  0.53593835  0.09223294  0.58890087    -0.64100
N755        N  0.98726968  0.07615919  0.37745658    -0.06600
N756        N  0.97602418  0.09406339  0.40819917    -0.64800
N757        N  0.52128213  0.07409301  0.37772182    -0.07300
N758        N  0.53401892  0.09033204  0.40878210    -0.64400
N759        N  0.98901310  0.07723037  0.61995827    -0.06200
N760        N  0.97781350  0.09555820  0.58970933    -0.65100
Mn761      Mn  0.55124002  0.04561870  0.66522961     1.10700
C762        C  0.50733273  0.10491438  0.57089832     0.97900
C763        C  0.50543184  0.10267774  0.42728188     0.98000
N764        N  0.92574145  0.48812733  0.37680430    -0.07300
N765        N  0.90736663  0.47690885  0.40717243    -0.62700
N766        N  0.92876760  0.02262507  0.61933491    -0.06700
N767        N  0.91240936  0.03533379  0.58833127    -0.59400
N768        N  0.92739216  0.48770026  0.61922623    -0.08000
N769        N  0.90942977  0.47641184  0.58872937    -0.62300
N770        N  0.92686928  0.02176551  0.37687875    -0.07000
N771        N  0.91036101  0.03447361  0.40796024    -0.59500
Mn772      Mn  0.95334060  0.45668117  0.66469704     1.20200
Mn773      Mn  0.95791149  0.05078663  0.66517501     1.10100
Cl774      Cl  0.50203512  0.00150365  0.66516882    -0.87400
C775        C  0.89784468  0.00595781  0.42623778     0.94900
C776        C  0.90009147  0.00676199  0.56997114     0.94700
C777        C  0.98595822  0.26984534  0.46774000    -0.21800
C778        C  0.50116153  0.28804275  0.49923608    -0.08300
C779        C  0.51707573  0.26892919  0.53005146     0.12500
C780        C  0.51724140  0.23255471  0.52834116    -0.21800
C781        C  0.50218893  0.21437091  0.49679320    -0.08400
C782        C  0.98618816  0.23346394  0.46599738     0.12500
C783        C  0.96842832  0.21613550  0.43159298    -0.25200
H784        H  0.97346075  0.28423437  0.44429800     0.13800
H785        H  0.52970123  0.21816637  0.55181415     0.13800
C786        C  0.53492924  0.28623450  0.56440907    -0.25100
H787        H  0.95525680  0.23520375  0.41218230     0.04000
H788        H  0.94839040  0.19777062  0.44254229     0.07300
H789        H  0.98778473  0.20222680  0.41307144     0.07300
H790        H  0.51563536  0.30017370  0.58298303     0.07200
H791        H  0.55497849  0.30456232  0.55340238     0.07200
H792        H  0.54811530  0.26715092  0.58378727     0.04000
C793        C  0.77102301  0.99555618  0.46448163    -0.21800
C794        C  0.78864123  0.49857309  0.50041318    -0.08300
C795        C  0.76806837  0.50193967  0.53517231     0.12500
C796        C  0.73177076  0.50003017  0.53239969    -0.21800
C797        C  0.71473936  0.49492137  0.49617823    -0.08400
C798        C  0.73470947  0.99380731  0.46168123     0.12500
C799        C  0.71937085  0.98719703  0.42140965    -0.25200
H800        H  0.78626235  0.99221759  0.43778912     0.13800
H801        H  0.71656192  0.50298807  0.55916492     0.13800
C802        C  0.78339183  0.50803005  0.57555834    -0.25100
H803        H  0.73970508  0.98367946  0.39836966     0.04000
H804        H  0.70327155  0.00964582  0.41224402     0.07300
H805        H  0.70357010  0.96312930  0.42195038     0.07300
H806        H  0.79860714  0.53247230  0.57565234     0.07200
H807        H  0.80005813  0.48577054  0.58399547     0.07200
H808        H  0.76307283  0.51056819  0.59878305     0.04000
C809        C  0.67712890  0.49874364  0.83030817     0.78700
N810        N  0.65966863  0.49836909  0.86535435    -0.79600
C811        C  0.62516351  0.99669393  0.86560987     0.81200
N812        N  0.60717912  0.99520145  0.83133533    -0.79500
C813        C  0.62438104  0.99535076  0.79633276     0.81200
N814        N  0.65873273  0.49730677  0.79622973    -0.81200
C815        C  0.82825381  0.50522408  0.83289865     0.78700
N816        N  0.84565097  0.50515860  0.79782232    -0.79600
C817        C  0.88095281  0.00799142  0.79752374     0.81200
N818        N  0.89895101  0.00958268  0.83175374    -0.79500
C819        C  0.88176834  0.00904447  0.86673876     0.81300
N820        N  0.84668520  0.50718754  0.86690623    -0.81200
C821        C  0.50062315  0.17625514  0.83162689     0.78700
N822        N  0.50254661  0.15823249  0.79718191    -0.79600
C823        C  0.50757911  0.12341815  0.79734520     0.81200
N824        N  0.51068823  0.10631050  0.83210531    -0.79500
C825        C  0.50876123  0.12404022  0.86664607     0.81300
N826        N  0.50349352  0.15881052  0.86635749    -0.81200
C827        C  0.49516651  0.32698107  0.83332087     0.78700
N828        N  0.49539339  0.34593097  0.86712514    -0.79600
C829        C  0.49604819  0.38100675  0.86587453     0.81200
N830        N  0.49617353  0.39757558  0.83064583    -0.79500
C831        C  0.49557762  0.37901206  0.79664729     0.81300
N832        N  0.49517309  0.34379537  0.79795109    -0.81200
N833        N  0.57741531  0.01435733  0.71051447    -0.07600
N834        N  0.59574729  0.02545221  0.74083548    -0.59700
N835        N  0.57630669  0.48149700  0.95270808    -0.07300
N836        N  0.59310908  0.46868206  0.92189724    -0.61800
N837        N  0.57941693  0.01572064  0.95276763    -0.06900
N838        N  0.59754365  0.02691458  0.92216468    -0.59700
N839        N  0.57555173  0.48028278  0.71084025    -0.06600
N840        N  0.59198319  0.46757849  0.74176792    -0.62200
C841        C  0.60491181  0.99595306  0.75951011     0.94600
C842        C  0.60655055  0.99743193  0.90313807     0.94400
N843        N  0.98157854  0.42950154  0.95206689    -0.07800
N844        N  0.96869952  0.41308949  0.92122078    -0.60300
N845        N  0.51534623  0.42537197  0.71033241    -0.05900
N846        N  0.52626850  0.40693630  0.74066581    -0.61500
N847        N  0.98118711  0.42700647  0.71030612    -0.07800
N848        N  0.96813740  0.40976508  0.74061588    -0.60600
N849        N  0.51561126  0.42745053  0.95202374    -0.05500
N850        N  0.52673692  0.40953686  0.92122327    -0.61600
Mn851      Mn  0.54643385  0.45320707  0.99791743     1.18400
C852        C  0.49712197  0.40083203  0.90242171     0.96700
C853        C  0.49656091  0.39718632  0.75888019     0.97300
N854        N  0.52478663  0.07617963  0.95295655    -0.07800
N855        N  0.53742703  0.09275653  0.92191743    -0.64100
N856        N  0.98882765  0.07704291  0.71077417    -0.06600
N857        N  0.97758354  0.09530717  0.74124227    -0.64800
N858        N  0.52298969  0.07485196  0.71114873    -0.07300
N859        N  0.53570570  0.09133742  0.74209952    -0.64400
N860        N  0.99061344  0.07803943  0.95353247    -0.06200
N861        N  0.97927910  0.09616482  0.92321761    -0.65100
Mn862      Mn  0.55283293  0.04654047  0.99838950     1.10700
C863        C  0.50871814  0.10526214  0.90398787     0.97900
C864        C  0.50710549  0.10404896  0.76032664     0.98000
N865        N  0.92669234  0.48774377  0.71002368    -0.07300
N866        N  0.90846344  0.47670450  0.74061003    -0.62700
N867        N  0.93035292  0.02362532  0.95258117    -0.06700
N868        N  0.91367395  0.03664080  0.92199279    -0.59400
N869        N  0.92755007  0.48989299  0.95245281    -0.08000
N870        N  0.90990526  0.47885176  0.92161523    -0.62300
N871        N  0.92852169  0.02258638  0.71067958    -0.07000
N872        N  0.91205794  0.03551297  0.74163906    -0.59500
Mn873      Mn  0.95321016  0.45854291  0.99780584     1.20200
Mn874      Mn  0.95940768  0.05137981  0.99862401     1.10100
Cl875      Cl  0.50364274  0.00235253  0.99805180    -0.87400
C876        C  0.89952242  0.00710623  0.76006319     0.94900
C877        C  0.90123889  0.00823687  0.90344768     0.94700
C878        C  0.98037958  0.27011252  0.80305951    -0.21800
C879        C  0.49516515  0.28835976  0.83471615    -0.08300
C880        C  0.51013252  0.26925626  0.86616315     0.12500
C881        C  0.51086597  0.23293984  0.86414997    -0.21800
C882        C  0.49716987  0.21473551  0.83182055    -0.08400
C883        C  0.98099589  0.23371497  0.80114735     0.12500
C884        C  0.96371152  0.21622906  0.76655151    -0.25200
H885        H  0.96828397  0.28450143  0.77934521     0.13800
H886        H  0.52305666  0.21864554  0.88787589     0.13800
C887        C  0.52657457  0.28646266  0.90150923    -0.25100
H888        H  0.95014432  0.23515297  0.74731354     0.04000
H889        H  0.94408678  0.19733599  0.77730838     0.07300
H890        H  0.98338449  0.20287268  0.74794644     0.07300
H891        H  0.50655297  0.30052522  0.91894559     0.07200
H892        H  0.54722532  0.30463266  0.89167808     0.07200
H893        H  0.53875779  0.26733513  0.92166378     0.04000
C894        C  0.77194578  0.01834011  0.80188555    -0.21800
C895        C  0.78956909  0.50348822  0.83348473    -0.08300
C896        C  0.77002703  0.49184626  0.86655496     0.12500
C897        C  0.73367622  0.49052283  0.86410475    -0.21800
C898        C  0.71584110  0.50046236  0.82978840    -0.08400
C899        C  0.73560167  0.01726413  0.79943054     0.12500
C900        C  0.71835397  0.03521425  0.76515489    -0.25200
H901        H  0.78651895  0.03150969  0.77892240     0.13800
H902        H  0.71905712  0.48132206  0.88940539     0.13800
C903        C  0.78674923  0.47996287  0.90443325    -0.25100
H904        H  0.73745010  0.04907366  0.74622434     0.04000
H905        H  0.69936270  0.05463401  0.77625193     0.07300
H906        H  0.70507325  0.01592653  0.74615959     0.07300
H907        H  0.80013402  0.50201451  0.91892862     0.07200
H908        H  0.80546289  0.45871602  0.89818944     0.07200
H909        H  0.76734671  0.46989296  0.92591425     0.04000
C910        C  0.67631594  0.99721656  0.16433133     0.78700
N911        N  0.65873990  0.99663729  0.19934908    -0.79600
C912        C  0.62349252  0.49536115  0.19954800     0.81200
N913        N  0.60544152  0.49465352  0.16533565    -0.79500
C914        C  0.62264107  0.49581007  0.13042642     0.81200
N915        N  0.65791328  0.99718347  0.13030329    -0.81200
C916        C  0.82770168  0.00487285  0.16554137     0.78700
N917        N  0.84504667  0.00572157  0.13036618    -0.79600
C918        C  0.88033956  0.50822214  0.13013640     0.81200
N919        N  0.89851195  0.50913124  0.16427787    -0.79500
C920        C  0.88143366  0.50805047  0.19929452     0.81300
N921        N  0.84631901  0.00527645  0.19941610    -0.81200
C922        C  0.50518022  0.67662717  0.16475278     0.78700
N923        N  0.50634524  0.65820147  0.13060414    -0.79600
C924        C  0.50835001  0.62316020  0.13121940     0.81200
N925        N  0.50927235  0.60613681  0.16618157    -0.79500
C926        C  0.50832782  0.62422219  0.20054250     0.81300
N927        N  0.50618677  0.65940433  0.19984317    -0.81200
C928        C  0.50003106  0.82721881  0.16454409     0.78700
N929        N  0.49808908  0.84560892  0.19867894    -0.79600
C930        C  0.49552612  0.88062286  0.19800713     0.81200
N931        N  0.49494504  0.89762871  0.16302506    -0.79500
C932        C  0.49676581  0.87954646  0.12870937     0.81300
N933        N  0.49936415  0.84441895  0.12945259    -0.81200
N934        N  0.57739561  0.51520197  0.04383927    -0.07600
N935        N  0.59498140  0.52622751  0.07472738    -0.59700
N936        N  0.57451765  0.98031644  0.28588243    -0.07300
N937        N  0.59174153  0.96760501  0.25532003    -0.61800
N938        N  0.57708370  0.51420079  0.28613568    -0.06900
N939        N  0.59568573  0.52539166  0.25592870    -0.59700
N940        N  0.57652768  0.98114530  0.04364955    -0.06600
N941        N  0.59215581  0.96823000  0.07496889    -0.62200
C942        C  0.60343032  0.49666394  0.09364795     0.94600
C943        C  0.60483696  0.49592860  0.23698476     0.94400
N944        N  0.97992459  0.92794718  0.28488654    -0.07800
N945        N  0.96727361  0.91194465  0.25358972    -0.60300
N946        N  0.51646250  0.92635080  0.04265130    -0.05900
N947        N  0.52738953  0.90767129  0.07278887    -0.61500
N948        N  0.98226040  0.92826903  0.04285922    -0.07800
N949        N  0.96924206  0.91109640  0.07322794    -0.60600
N950        N  0.51397586  0.92607390  0.28510049    -0.05500
N951        N  0.52533745  0.90856108  0.25414404    -0.61600
Mn952      Mn  0.54472640  0.95185140  0.33099474     1.18400
C953        C  0.49592200  0.90001946  0.23490912     0.96700
C954        C  0.49769783  0.89820173  0.09124101     0.97300
N955        N  0.52293923  0.57519554  0.28638743    -0.07800
N956        N  0.53594578  0.59237607  0.25598999    -0.64100
N957        N  0.98932968  0.57763938  0.04431380    -0.06600
N958        N  0.97812406  0.59521615  0.07531376    -0.64800
N959        N  0.52343964  0.57563088  0.04436922    -0.07300
N960        N  0.53621858  0.59169114  0.07554891    -0.64400
N961        N  0.98884905  0.57731199  0.28676741    -0.06200
N962        N  0.97790740  0.59605853  0.25668938    -0.65100
Mn963      Mn  0.55070925  0.54513288  0.33176758     1.10700
C964        C  0.50753406  0.60549474  0.23803120     0.97900
C965        C  0.50763938  0.60380116  0.09428832     0.98000
N966        N  0.92751116  0.98884078  0.04315194    -0.07300
N967        N  0.90851988  0.97759051  0.07304617    -0.62700
N968        N  0.92859290  0.52270146  0.28599562    -0.06700
N969        N  0.91277576  0.53564377  0.25480174    -0.59400
N970        N  0.92595827  0.98817330  0.28556354    -0.08000
N971        N  0.90887927  0.97706871  0.25435580    -0.62300
N972        N  0.92860702  0.52346313  0.04375393    -0.07000
N973        N  0.91170933  0.53617889  0.07455574    -0.59500
Mn974      Mn  0.95152127  0.95682530  0.33088896     1.20200
Mn975      Mn  0.95751842  0.55060129  0.33193103     1.10100
Cl976      Cl  0.50139541  0.50117954  0.33142619    -0.87400
C977        C  0.89884182  0.50766067  0.09252204     0.94900
C978        C  0.90074594  0.50720599  0.23601965     0.94700
C979        C  0.98578523  0.77011116  0.13492439    -0.21800
C980        C  0.50193671  0.78872674  0.16537220    -0.08300
C981        C  0.51937162  0.77011468  0.19547549     0.12500
C982        C  0.51976523  0.73371699  0.19428960    -0.21800
C983        C  0.50347583  0.71516027  0.16386652    -0.08400
C984        C  0.98619654  0.73373059  0.13371186     0.12500
C985        C  0.96705136  0.71584723  0.10066620    -0.25200
H986        H  0.97226221  0.78422782  0.11200323     0.13800
H987        H  0.53334591  0.71960872  0.21717520     0.13800
C988        C  0.53864351  0.78809488  0.22834861    -0.25100
H989        H  0.95279671  0.73457949  0.08183088     0.04000
H990        H  0.94775016  0.69739780  0.11305788     0.07300
H991        H  0.98565568  0.70191503  0.08120065     0.07300
H992        H  0.52011721  0.80206835  0.24786875     0.07200
H993        H  0.55785413  0.80654961  0.21578077     0.07200
H994        H  0.55300105  0.76941135  0.24714247     0.04000
C995        C  0.77169184  0.49941418  0.13071190    -0.21800
C996        C  0.78893841  0.00275564  0.16655491    -0.08300
C997        C  0.76866739  0.00859676  0.20116935     0.12500
C998        C  0.73234133  0.00644147  0.19903769    -0.21800
C999        C  0.71510039  0.99878478  0.16359277    -0.08400
C1000       C  0.73538525  0.49777747  0.12814497     0.12500
C1001       C  0.71984964  0.49345282  0.08756055    -0.25200
H1002       H  0.78674263  0.49745257  0.10370874     0.13800
H1003       H  0.71725803  0.01116658  0.22557829     0.13800
C1004       C  0.78435577  0.01769931  0.24063842    -0.25100
H1005       H  0.74005087  0.49160222  0.06412046     0.04000
H1006       H  0.70342150  0.51621686  0.08032889     0.07300
H1007       H  0.70437555  0.46920143  0.08628179     0.07300
H1008       H  0.80020912  0.04162571  0.23795333     0.07200
H1009       H  0.80048555  0.99586209  0.25146541     0.07200
H1010       H  0.76421187  0.02269981  0.26354524     0.04000
C1011       C  0.67526147  0.99643639  0.49658906     0.78700
N1012       N  0.65770716  0.99624029  0.53155492    -0.79600
C1013       C  0.62308996  0.49427038  0.53225835     0.81200
N1014       N  0.60499556  0.49388336  0.49805618    -0.79500
C1015       C  0.62221739  0.49357855  0.46309922     0.81200
N1016       N  0.65678707  0.99581453  0.46252437    -0.81200
C1017       C  0.82687731  0.00367258  0.50007147     0.78700
N1018       N  0.84429684  0.00433243  0.46499279    -0.79600
C1019       C  0.87982277  0.50674399  0.46382933     0.81200
N1020       N  0.89796407  0.50822119  0.49796908    -0.79500
C1021       C  0.88100029  0.50624591  0.53300832     0.81300
N1022       N  0.84546451  0.00476247  0.53404937    -0.81200
C1023       C  0.50406656  0.67614465  0.49759003     0.78700
N1024       N  0.50509576  0.65772767  0.46340091    -0.79600
C1025       C  0.50757471  0.62269057  0.46395931     0.81200
N1026       N  0.50908217  0.60566179  0.49887755    -0.79500
C1027       C  0.50822808  0.62370739  0.53324476     0.81300
N1028       N  0.50556858  0.65883682  0.53260181    -0.81200
C1029       C  0.49809150  0.82707361  0.49895588     0.78700
N1030       N  0.49750150  0.84570125  0.53299936    -0.79600
C1031       C  0.49556815  0.88076608  0.53219662     0.81200
N1032       N  0.49407166  0.89761402  0.49714328    -0.79500
C1033       C  0.49443934  0.87931383  0.46292022     0.81300
N1034       N  0.49661292  0.84417755  0.46383895    -0.81200
N1035       N  0.57643379  0.51352545  0.37691500    -0.07600
N1036       N  0.59417195  0.52435304  0.40779323    -0.59700
N1037       N  0.57542698  0.98044910  0.61949608    -0.07300
N1038       N  0.59171252  0.96752382  0.58842760    -0.61800
N1039       N  0.57792476  0.51421012  0.61949766    -0.06900
N1040       N  0.59567081  0.52512744  0.58848202    -0.59700
N1041       N  0.57363241  0.97969684  0.37701677    -0.06600
N1042       N  0.59007929  0.96672874  0.40778375    -0.62200
C1043       C  0.60295014  0.49466528  0.42629228     0.94600
C1044       C  0.60466416  0.49544998  0.56983795     0.94400
N1045       N  0.98087082  0.92840886  0.61902779    -0.07800
N1046       N  0.96798918  0.91244496  0.58784813    -0.60300
N1047       N  0.51342154  0.92513421  0.37604349    -0.05900
N1048       N  0.52452486  0.90692149  0.40643895    -0.61500
N1049       N  0.97940630  0.92700750  0.37632692    -0.07800
N1050       N  0.96654963  0.91021434  0.40708242    -0.60600
N1051       N  0.51502893  0.92631905  0.61910103    -0.05500
N1052       N  0.52611737  0.90873502  0.58803316    -0.61600
Mn1053     Mn  0.54607579  0.95222676  0.66489474     1.18400
C1054       C  0.49651962  0.90031301  0.56902100     0.96700
C1055       C  0.49496816  0.89766766  0.42525137     0.97300
N1056       N  0.52348932  0.57503096  0.61922066    -0.07800
N1057       N  0.53630972  0.59222791  0.58872193    -0.64100
N1058       N  0.98841786  0.57646164  0.37763633    -0.06600
N1059       N  0.97725128  0.59455479  0.40826140    -0.64800
N1060       N  0.52252888  0.57429316  0.37771015    -0.07300
N1061       N  0.53536326  0.59068168  0.40863421    -0.64400
N1062       N  0.98927016  0.57677054  0.61954885    -0.06200
N1063       N  0.97811240  0.59532943  0.58944495    -0.65100
Mn1064     Mn  0.55148784  0.54541469  0.66491737     1.10700
C1065       C  0.50774191  0.60498067  0.57071160     0.97900
C1066       C  0.50682950  0.60324583  0.42708484     0.98000
N1067       N  0.92488961  0.98769710  0.37649377    -0.07300
N1068       N  0.90682249  0.97649526  0.40714432    -0.62700
N1069       N  0.92932429  0.52176531  0.61887806    -0.06700
N1070       N  0.91285239  0.53441336  0.58794212    -0.59400
N1071       N  0.92672084  0.98856871  0.61964993    -0.08000
N1072       N  0.90884285  0.97735169  0.58904501    -0.62300
N1073       N  0.92783487  0.52218658  0.37729636    -0.07000
N1074       N  0.91111961  0.53487944  0.40824814    -0.59500
Mn1075     Mn  0.95273263  0.95740613  0.66498163     1.20200
Mn1076     Mn  0.95813478  0.55011544  0.66473628     1.10100
Cl1077     Cl  0.50244573  0.50108530  0.66486545    -0.87400
C1078       C  0.89832099  0.50633617  0.42623633     0.94900
C1079       C  0.90055054  0.50579900  0.56969143     0.94700
C1080       C  0.98593695  0.77010816  0.46761201    -0.21800
C1081       C  0.49978665  0.78845466  0.49974465    -0.08300
C1082       C  0.51513849  0.76946706  0.53104105     0.12500
C1083       C  0.51592274  0.73309173  0.52918141    -0.21800
C1084       C  0.50205540  0.71476748  0.49702295    -0.08400
C1085       C  0.98678602  0.73374476  0.46570768     0.12500
C1086       C  0.97056659  0.71636248  0.43035800    -0.25200
H1087       H  0.97406019  0.78437805  0.44366418     0.13800
H1088       H  0.52795921  0.71882302  0.55303003     0.13800
C1089       C  0.53174999  0.78690348  0.56611890    -0.25100
H1090       H  0.95784915  0.73534194  0.41044832     0.04000
H1091       H  0.95040240  0.69766426  0.44020676     0.07300
H1092       H  0.99079425  0.70284993  0.41267646     0.07300
H1093       H  0.51174367  0.80057768  0.58396455     0.07200
H1094       H  0.55190967  0.80547832  0.55594466     0.07200
H1095       H  0.54456843  0.76793827  0.58595730     0.04000
C1096       C  0.77164426  0.49281359  0.46428985    -0.21800
C1097       C  0.78803609  0.00142646  0.50057190    -0.08300
C1098       C  0.76743936  0.00539337  0.53523605     0.12500
C1099       C  0.73111570  0.00365614  0.53243506    -0.21800
C1100       C  0.71411084  0.99799770  0.49628961    -0.08400
C1101       C  0.73532156  0.49102421  0.46149978     0.12500
C1102       C  0.71995252  0.48486082  0.42115330    -0.25200
H1103       H  0.78689519  0.48980394  0.43755246     0.13800
H1104       H  0.71587188  0.00698040  0.55912268     0.13800
C1105       C  0.78278558  0.01181358  0.57554152    -0.25100
H1106       H  0.74027733  0.48141460  0.39808619     0.04000
H1107       H  0.70400055  0.50748983  0.41223144     0.07300
H1108       H  0.70399039  0.46089713  0.42142468     0.07300
H1109       H  0.79833317  0.03604553  0.57523892     0.07200
H1110       H  0.79914724  0.98945433  0.58439238     0.07200
H1111       H  0.76246171  0.01491998  0.59867228     0.04000
C1112       C  0.67779421  0.99877996  0.82987233     0.78700
N1113       N  0.66033038  0.99853785  0.86487227    -0.79600
C1114       C  0.62449063  0.49641090  0.86619287     0.81200
N1115       N  0.60643228  0.49513197  0.83196602    -0.79500
C1116       C  0.62359388  0.49555678  0.79696058     0.81200
N1117       N  0.65955768  0.99715988  0.79565176    -0.81200
C1118       C  0.82839720  0.00507224  0.83327060     0.78700
N1119       N  0.84583354  0.00564546  0.79827533    -0.79600
C1120       C  0.88080886  0.50720154  0.79687906     0.81200
N1121       N  0.89892595  0.50902426  0.83101967    -0.79500
C1122       C  0.88181306  0.50908095  0.86604949     0.81300
N1123       N  0.84662830  0.00674927  0.86747202    -0.81200
C1124       C  0.50269721  0.67613361  0.83086880     0.78700
N1125       N  0.50404920  0.65787341  0.79656424    -0.79600
C1126       C  0.50752126  0.62289050  0.79697590     0.81200
N1127       N  0.50974010  0.60583208  0.83185278    -0.79500
C1128       C  0.50849247  0.62380317  0.86626985     0.81300
N1129       N  0.50476046  0.65877552  0.86574109    -0.81200
C1130       C  0.49794394  0.82696208  0.83273805     0.78700
N1131       N  0.49816499  0.84576906  0.86665393    -0.79600
C1132       C  0.49763273  0.88086493  0.86559121     0.81200
N1133       N  0.49658364  0.89756726  0.83047232    -0.79500
C1134       C  0.49606258  0.87912659  0.79639766     0.81300
N1135       N  0.49690587  0.84393317  0.79750227    -0.81200
N1136       N  0.57750139  0.51435526  0.71051818    -0.07600
N1137       N  0.59537724  0.52558195  0.74113089    -0.59700
N1138       N  0.57743809  0.98166039  0.95239071    -0.07300
N1139       N  0.59401348  0.96892621  0.92138915    -0.61800
N1140       N  0.57837048  0.51555270  0.95303795    -0.06900
N1141       N  0.59676884  0.52665973  0.92261092    -0.59700
N1142       N  0.57543878  0.98028204  0.71067515    -0.06600
N1143       N  0.59231289  0.96745570  0.74125399    -0.62200
C1144       C  0.60422643  0.49614417  0.76013467     0.94600
C1145       C  0.60589241  0.49714147  0.90374343     0.94400
N1146       N  0.98278752  0.92929840  0.95169615    -0.07800
N1147       N  0.96993284  0.91290143  0.92082501    -0.60300
N1148       N  0.51494268  0.92563819  0.71008460    -0.05900
N1149       N  0.52609742  0.90706170  0.74016284    -0.61500
N1150       N  0.98074571  0.92750514  0.71033146    -0.07800
N1151       N  0.96790606  0.91025198  0.74075808    -0.60600
N1152       N  0.51705728  0.92736700  0.95173027    -0.05500
N1153       N  0.52823236  0.90938488  0.92100444    -0.61600
Mn1154     Mn  0.54780373  0.95319013  0.99761042     1.18400
C1155       C  0.49864471  0.90061706  0.90218882     0.96700
C1156       C  0.49655720  0.89741451  0.75873276     0.97300
N1157       N  0.52391114  0.57619776  0.95288730    -0.07800
N1158       N  0.53672407  0.59266959  0.92187395    -0.64100
N1159       N  0.98880928  0.57648967  0.71043926    -0.06600
N1160       N  0.97746044  0.59453169  0.74103574    -0.64800
N1161       N  0.52302747  0.57462498  0.71065052    -0.07300
N1162       N  0.53566557  0.59110564  0.74163037    -0.64400
N1163       N  0.98977181  0.57828715  0.95336577    -0.06200
N1164       N  0.97859395  0.59633540  0.92290077    -0.65100
Mn1165     Mn  0.55177357  0.54654057  0.99847455     1.10700
C1166       C  0.50814031  0.60522764  0.90374846     0.97900
C1167       C  0.50700529  0.60347211  0.76001419     0.98000
N1168       N  0.92648636  0.98852473  0.71051878    -0.07300
N1169       N  0.90840745  0.97751399  0.74121571    -0.62700
N1170       N  0.92950629  0.52395262  0.95245953    -0.06700
N1171       N  0.91331304  0.53686643  0.92147709    -0.59400
N1172       N  0.92843331  0.98956338  0.95244438    -0.08000
N1173       N  0.91030429  0.97862368  0.92192061    -0.62300
N1174       N  0.92860135  0.52181487  0.71013636    -0.07000
N1175       N  0.91187360  0.53470828  0.74093619    -0.59500
Mn1176     Mn  0.95435722  0.95816075  0.99758079     1.20200
Mn1177     Mn  0.95843924  0.55181183  0.99851655     1.10100
Cl1178     Cl  0.50245516  0.50253359  0.99816669    -0.87400
C1179       C  0.89929909  0.50628842  0.75931842     0.94900
C1180       C  0.90121423  0.50839490  0.90278515     0.94700
C1181       C  0.98415177  0.77019539  0.80161950    -0.21800
C1182       C  0.49852892  0.78832638  0.83379032    -0.08300
C1183       C  0.51327667  0.76911115  0.86528781     0.12500
C1184       C  0.51388807  0.73277981  0.86318623    -0.21800
C1185       C  0.50023770  0.71468702  0.83074060    -0.08400
C1186       C  0.98466648  0.73382456  0.79963733     0.12500
C1187       C  0.96784742  0.71652800  0.76461193    -0.25200
H1188       H  0.97233296  0.78461527  0.77775235     0.13800
H1189       H  0.52573287  0.71836893  0.88704903     0.13800
C1190       C  0.52941671  0.78619849  0.90088215    -0.25100
H1191       H  0.95484398  0.73557900  0.74503599     0.04000
H1192       H  0.94781590  0.69784985  0.77486950     0.07300
H1193       H  0.98773814  0.70298096  0.74648470     0.07300
H1194       H  0.50924366  0.80016036  0.91819587     0.07200
H1195       H  0.55011071  0.80443962  0.89134728     0.07200
H1196       H  0.54146963  0.76700023  0.92105181     0.04000
C1197       C  0.77174611  0.51341301  0.79917931    -0.21800
C1198       C  0.78986186  0.00321586  0.83354641    -0.08300
C1199       C  0.77064201  0.98629785  0.86366059     0.12500
C1200       C  0.73427896  0.98522156  0.86121229    -0.21800
C1201       C  0.71635939  0.00039883  0.82956771    -0.08400
C1202       C  0.73540904  0.51210955  0.79672434     0.12500
C1203       C  0.71875545  0.52400595  0.75881147    -0.25200
H1204       H  0.78637858  0.52261131  0.77387695     0.13800
H1205       H  0.71969594  0.97206945  0.88416984     0.13800
C1206       C  0.78793683  0.96832890  0.89789463    -0.25100
H1207       H  0.73819342  0.53404692  0.73735171     0.04000
H1208       H  0.70007563  0.54529084  0.76500932     0.07300
H1209       H  0.70536862  0.50196526  0.74429733     0.07300
H1210       H  0.80120084  0.98760781  0.91691766     0.07200
H1211       H  0.80696046  0.94895921  0.88674978     0.07200
H1212       H  0.76886570  0.95441297  0.91680064     0.04000
loop_ 
_geom_bond_atom_site_label_1 
_geom_bond_atom_site_label_2 
_geom_bond_distance 
_geom_bond_site_symmetry_2 
_ccdc_geom_bond_type 
C1            N2   1.362       .  A
C1            N6   1.357       .  A
C1           C90   1.496       .  S
N2          C306   1.357       .  A
C3            N4   1.355       .  A
C3          N305   1.358       .  A
C3           C34   1.456       .  S
N4            C5   1.353       .  A
C5          N309   1.352       .  A
C5           C33   1.451       .  S
N6          C308   1.353       .  A
C7            N8   1.362       .  A
C7           N12   1.356       .  A
C7           C87   1.496       .  S
N8          C312   1.357       .  A
C9           N10   1.354       .  A
C9          N311   1.358       .  A
C9           C68   1.458       .  S
N10          C11   1.353       .  A
C11         N315   1.352       .  A
C11          C69   1.451       .  S
N12         C314   1.353       .  A
C13          N14   1.357       .  A
C13          N18   1.363       .  A
C13          C74   1.489       .  S
N14          C15   1.354       .  A
C15          N16   1.355       .  A
C15          C56   1.456       .  S
N16          C17   1.356       .  A
C17          N18   1.360       .  A
C17          C55   1.462       .  S
C19          N20   1.357       .  A
C19          N24   1.362       .  A
C19          C71   1.489   1_655  S
N20          C21   1.354       .  A
C21          N22   1.355       .  A
C21          C44   1.456       .  S
N22          C23   1.356       .  A
C23          N24   1.359       .  A
C23          C45   1.460       .  S
N25          N26   1.319       .  A
N25         N334   1.316   1_545  A
N25        Mn256   2.192   1_554  S
N26          C33   1.349   1_545  A
N27          N28   1.320       .  A
N27         N332   1.316       .  A
N27         Mn43   2.198       .  S
N28         C337   1.350       .  A
N29          N30   1.320       .  A
N29         N330   1.316   1_545  A
N29         Mn54   2.197       .  S
N30          C34   1.350   1_545  A
N31          N32   1.320       .  A
N31         N328   1.316       .  A
N31        Mn245   2.199   1_554  S
N32         C336   1.350       .  A
C33         N335   1.350       .  A
C34         N331   1.351       .  A
N35          N36   1.321       .  A
N35         N647   1.315       .  A
N35         Mn65   2.198       .  S
N36         C650   1.350       .  A
N37          N38   1.320       .  A
N37         N645   1.316   1_455  A
N37        Mn245   2.202   1_554  S
N38          C45   1.351   1_455  A
N39          N40   1.321       .  A
N39         N643   1.316       .  A
N39        Mn267   2.203   1_554  S
N40         C651   1.352       .  A
N41          N42   1.319       .  A
N41         N641   1.315   1_455  A
N41         Mn43   2.197       .  S
N42          C44   1.350   1_455  A
Mn43        N132   2.198       .  S
Mn43        N138   2.196       .  S
Mn43       Cl370   2.547       .  S
C44         N642   1.350       .  A
C45         N646   1.352       .  A
N46          N47   1.321       .  A
N46         N658   1.316   1_455  A
N46         Mn54   2.205       .  S
N47          C55   1.352       .  A
N48          N49   1.319       .  A
N48         N656   1.316       .  A
N48        Mn268   2.196   1_554  S
N49         C662   1.350       .  A
N50          N51   1.321       .  A
N50         N654   1.316   1_455  A
N50        Mn256   2.201   1_554  S
N51          C56   1.351       .  A
N52          N53   1.321       .  A
N52         N652   1.316       .  A
N52         Mn66   2.202       .  S
N53         C661   1.351       .  A
Mn54        N126   2.195       .  S
Mn54        N151   2.199       .  S
Mn54        Cl67   2.545       .  S
C55         N659   1.351   1_455  A
C56         N655   1.350   1_455  A
N57          N58   1.320       .  A
N57         N366   1.316       .  A
N57        Mn267   2.196   1_554  S
N58         C371   1.350       .  A
N59          N60   1.320       .  A
N59         N364   1.316   1_545  A
N59         Mn66   2.197       .  S
N60          C69   1.350       .  A
N61          N62   1.319       .  A
N61         N362   1.316       .  A
N61         Mn65   2.193       .  S
N62         C372   1.349       .  A
N63          N64   1.320       .  A
N63         N360   1.316   1_545  A
N63        Mn268   2.203   1_554  S
N64          C68   1.351       .  A
Mn65        N140   2.208       .  S
Mn65        N158   2.194       .  S
Mn65       Cl976   2.547       .  S
Mn66        N149   2.196       .  S
Mn66        N164   2.204       .  S
Mn66       Cl673   2.547       .  S
Cl67       Mn346   2.547   1_545  S
Cl67       Mn974   2.547   1_445  S
Cl67       Mn672   2.547   1_455  S
C68         N361   1.351   1_545  A
C69         N365   1.348   1_545  A
C70          C75   1.404       .  A
C70         C677   1.404       .  A
C70          H77   1.084       .  S
C71          C72   1.420       .  A
C71         C676   1.404   1_455  A
C72          C73   1.404       .  A
C72          C79   1.509       .  S
C73          C74   1.404       .  A
C73          H78   1.084       .  S
C74         C681   1.420   1_455  A
C75         C680   1.420       .  A
C75          C76   1.509       .  S
C76          H80   1.111       .  S
C76          H81   1.110       .  S
C76          H82   1.109       .  S
C79          H83   1.109       .  S
C79          H84   1.110       .  S
C79          H85   1.111       .  S
C86          C91   1.402       .  A
C86         C390   1.405   1_565  A
C86          H93   1.083       .  S
C87          C88   1.422       .  A
C87         C389   1.406       .  A
C88          C89   1.403       .  A
C88          C95   1.510       .  S
C89          C90   1.406       .  A
C89          H94   1.083       .  S
C90         C394   1.422       .  A
C91         C393   1.423       .  A
C91          C92   1.510       .  S
C92          H96   1.111       .  S
C92          H97   1.110   1_565  S
C92          H98   1.110       .  S
C95          H99   1.110       .  S
C95         H100   1.110       .  S
C95         H101   1.111       .  S
C102        N103   1.361       .  A
C102        N107   1.358       .  A
C102        C191   1.497       .  S
N103        C407   1.355       .  A
C104        N406   1.355       .  A
C104        N105   1.354       .  A
C104        C135   1.453       .  S
N105        C106   1.354       .  A
C106        N410   1.355       .  A
C106        C134   1.454       .  S
N107        C409   1.355       .  A
C108        N109   1.362       .  A
C108        N113   1.358       .  A
C108        C188   1.498       .  S
N109        C413   1.356       .  A
C110        N412   1.356       .  A
C110        N111   1.355       .  A
C110        C169   1.458       .  S
N111        C112   1.355       .  A
C112        N416   1.355       .  A
C112        C170   1.458       .  S
N113        C415   1.355       .  A
C114        N115   1.358       .  A
C114        N119   1.362       .  A
C114        C175   1.490       .  S
N115        C116   1.355       .  A
C116        N117   1.355       .  A
C116        C157   1.456       .  S
N117        C118   1.355       .  A
C118        N119   1.358       .  A
C118        C156   1.460       .  S
C120        N121   1.358       .  A
C120        N125   1.362       .  A
C120        C172   1.490   1_655  S
N121        C122   1.355       .  A
C122        N123   1.356       .  A
C122        C145   1.457       .  S
N123        C124   1.356       .  A
C124        N125   1.358       .  A
C124        C146   1.461       .  S
N126        N127   1.319       .  A
N126        N435   1.316   1_545  A
N127        C134   1.349   1_545  A
N128        N433   1.316       .  A
N128        N129   1.320       .  A
N128       Mn144   2.197       .  S
N129        C438   1.349       .  A
N130        N431   1.316   1_545  A
N130        N131   1.319       .  A
N130       Mn155   2.195       .  S
N131        C135   1.350   1_545  A
N132        N429   1.316       .  A
N132        N133   1.320       .  A
N133        C437   1.350       .  A
C134        N436   1.351       .  A
C135        N432   1.349       .  A
N136        N748   1.316       .  A
N136        N137   1.320       .  A
N136       Mn166   2.198       .  S
N137        C751   1.350       .  A
N138        N139   1.320       .  A
N138        N746   1.316   1_455  A
N139        C146   1.350   1_455  A
N140        N744   1.316       .  A
N140        N141   1.322       .  A
N141        C752   1.353       .  A
N142        N742   1.316   1_455  A
N142        N143   1.320       .  A
N142       Mn144   2.200       .  S
N143        C145   1.351   1_455  A
Mn144       N233   2.201       .  S
Mn144       N239   2.200       .  S
Mn144      Cl471   2.547       .  S
C145        N743   1.350       .  A
C146        N747   1.353       .  A
N147        N148   1.322       .  A
N147        N759   1.316   1_455  A
N147       Mn155   2.209       .  S
N148        C156   1.353       .  A
N149        N757   1.316       .  A
N149        N150   1.320       .  A
N150        C763   1.350       .  A
N151        N755   1.316   1_455  A
N151        N152   1.320       .  A
N152        C157   1.350       .  A
N153        N753   1.316       .  A
N153        N154   1.319       .  A
N153       Mn167   2.192       .  S
N154        C762   1.349       .  A
Mn155       N227   2.200       .  S
Mn155       N252   2.203       .  S
Mn155      Cl168   2.547       .  S
C156        N760   1.349   1_455  A
C157        N756   1.350   1_455  A
N158        N159   1.319       .  A
N158        N467   1.316       .  A
N159        C472   1.350       .  A
N160        N161   1.321       .  A
N160        N465   1.316   1_545  A
N160       Mn167   2.205       .  S
N161        C170   1.352       .  A
N162        N463   1.316       .  A
N162        N163   1.319       .  A
N162       Mn166   2.195       .  S
N163        C473   1.349       .  A
N164        N461   1.316   1_545  A
N164        N165   1.321       .  A
N165        C169   1.351       .  A
Mn166       N241   2.205       .  S
Mn166       N259   2.196       .  S
Mn166     Cl1077   2.548       .  S
Mn167       N250   2.200       .  S
Mn167       N265   2.197       .  S
Mn167      Cl774   2.547       .  S
Cl168      Mn447   2.546   1_545  S
Cl168     Mn1075   2.548   1_445  S
Cl168      Mn773   2.547   1_455  S
C169        N462   1.351   1_545  A
C170        N466   1.349   1_545  A
C171        C778   1.405       .  A
C171        C176   1.404       .  A
C171        H178   1.083       .  S
C172        C777   1.405   1_455  A
C172        C173   1.420       .  A
C173        C174   1.404       .  A
C173        C180   1.509       .  S
C174        C175   1.405       .  A
C174        H179   1.084       .  S
C175        C782   1.420   1_455  A
C176        C781   1.420       .  A
C176        C177   1.509       .  S
C177        H181   1.111       .  S
C177        H182   1.110       .  S
C177        H183   1.109       .  S
C180        H184   1.109       .  S
C180        H185   1.110       .  S
C180        H186   1.111       .  S
C187        C491   1.407   1_565  A
C187        C192   1.403       .  A
C187        H194   1.083       .  S
C188        C490   1.407       .  A
C188        C189   1.422       .  A
C189        C190   1.403       .  A
C189        C196   1.510       .  S
C190        C191   1.407       .  A
C190        H195   1.083       .  S
C191        C495   1.421       .  A
C192        C494   1.421       .  A
C192        C193   1.510       .  S
C193        H197   1.111       .  S
C193        H198   1.110   1_565  S
C193        H199   1.110       .  S
C196        H200   1.110       .  S
C196        H201   1.110       .  S
C196        H202   1.111       .  S
C203        N204   1.361       .  A
C203        N208   1.358       .  A
C203        C292   1.492       .  S
N204        C508   1.357       .  A
C205        N507   1.356       .  A
C205        N206   1.355       .  A
C205        C236   1.456       .  S
N206        C207   1.355       .  A
C207        N511   1.356       .  A
C207        C235   1.458       .  S
N208        C510   1.355       .  A
C209        N210   1.361       .  A
C209        N214   1.357       .  A
C209        C289   1.491       .  S
N210        C514   1.356       .  A
C211        N513   1.355       .  A
C211        N212   1.354       .  A
C211        C270   1.454       .  S
N212        C213   1.354       .  A
C213        N517   1.356       .  A
C213        C271   1.455       .  S
N214        C516   1.354       .  A
C215        N216   1.359       .  A
C215        N220   1.361       .  A
C215        C276   1.490   1_455  S
N216        C217   1.357       .  A
C217        N218   1.356       .  A
C217        C258   1.459       .  S
N218        C219   1.356       .  A
C219        N220   1.356       .  A
C219        C257   1.458       .  S
C221        N222   1.357       .  A
C221        N226   1.363       .  A
C221        C273   1.490       .  S
N222        C223   1.354       .  A
C223        N224   1.354       .  A
C223        C246   1.455       .  S
N224        C225   1.355       .  A
C225        N226   1.359       .  A
C225        C247   1.460       .  S
N227        N228   1.320       .  A
N227        N536   1.316   1_545  A
N228        C235   1.350   1_545  A
N229        N534   1.316       .  A
N229        N230   1.320       .  A
N229       Mn245   2.202       .  S
N230        C539   1.351       .  A
N231        N532   1.316   1_545  A
N231        N232   1.320       .  A
N231       Mn256   2.197       .  S
N232        C236   1.350   1_545  A
N233        N530   1.316       .  A
N233        N234   1.321       .  A
N234        C538   1.351       .  A
C235        N537   1.351       .  A
C236        N533   1.350       .  A
N237        N849   1.316       .  A
N237        N238   1.319       .  A
N237       Mn267   2.197       .  S
N238        C852   1.349       .  A
N239        N240   1.320       .  A
N239        N847   1.316   1_455  A
N240        C247   1.351   1_455  A
N241        N845   1.316       .  A
N241        N242   1.321       .  A
N242        C853   1.352       .  A
N243        N843   1.316   1_455  A
N243        N244   1.320       .  A
N243       Mn245   2.197       .  S
N244        C246   1.351   1_455  A
Mn245      Cl572   2.546       .  S
C246        N844   1.349       .  A
C247        N848   1.352       .  A
N248        N249   1.322       .  A
N248        N860   1.316   1_455  A
N248       Mn256   2.204       .  S
N249        C257   1.352       .  A
N250        N858   1.316       .  A
N250        N251   1.320       .  A
N251        C864   1.350       .  A
N252        N856   1.316   1_455  A
N252        N253   1.321       .  A
N253        C258   1.351       .  A
N254        N854   1.316       .  A
N254        N255   1.319       .  A
N254       Mn268   2.196       .  S
N255        C863   1.349       .  A
Mn256      Cl269   2.548       .  S
C257        N861   1.349   1_455  A
C258        N857   1.350   1_455  A
N259        N260   1.320       .  A
N259        N568   1.316       .  A
N260        C573   1.350       .  A
N261        N262   1.321       .  A
N261        N566   1.316   1_545  A
N261       Mn268   2.200       .  S
N262        C271   1.351       .  A
N263        N564   1.316       .  A
N263        N264   1.319       .  A
N263       Mn267   2.194       .  S
N264        C574   1.349       .  A
N265        N562   1.316   1_545  A
N265        N266   1.320       .  A
N266        C270   1.350       .  A
Mn267     Cl1178   2.547       .  S
Mn268      Cl875   2.545       .  S
Cl269      Mn548   2.546   1_545  S
Cl269     Mn1176   2.547   1_445  S
Cl269      Mn874   2.545   1_455  S
C270        N563   1.350   1_545  A
C271        N567   1.349   1_545  A
C272        C879   1.406       .  A
C272        C277   1.405       .  A
C272        H279   1.084       .  S
C273        C878   1.406       .  A
C273        C274   1.420   1_655  A
C274        C275   1.402       .  A
C274        C281   1.510       .  S
C275        C276   1.405   1_455  A
C275        H280   1.084       .  S
C276        C883   1.419       .  A
C277        C882   1.419       .  A
C277        C278   1.508       .  S
C278        H282   1.111       .  S
C278        H283   1.110       .  S
C278        H284   1.109       .  S
C281        H285   1.110       .  S
C281        H286   1.110       .  S
C281        H287   1.111       .  S
C288        C592   1.405       .  A
C288        C293   1.403       .  A
C288        H295   1.084       .  S
C289        C591   1.405       .  A
C289        C290   1.420       .  A
C290        C291   1.403       .  A
C290        C297   1.509       .  S
C291        C292   1.406       .  A
C291        H296   1.083       .  S
C292        C596   1.420       .  A
C293        C595   1.418       .  A
C293        C294   1.509       .  S
C294        H298   1.111       .  S
C294        H299   1.110       .  S
C294        H300   1.109       .  S
C297        H301   1.110       .  S
C297        H302   1.110       .  S
C297        H303   1.111       .  S
C304        N305   1.363       .  A
C304        N309   1.355       .  A
C304        C393   1.495       .  S
C306        N307   1.354       .  A
C306        C337   1.455       .  S
N307        C308   1.353       .  A
C308        C336   1.452       .  S
C310        N311   1.363       .  A
C310        N315   1.355       .  A
C310        C390   1.495       .  S
C312        N313   1.355       .  A
C312        C371   1.457       .  S
N313        C314   1.354       .  A
C314        C372   1.452       .  S
C316        N317   1.357       .  A
C316        N321   1.363       .  A
C316        C377   1.488       .  S
N317        C318   1.354       .  A
C318        N319   1.355       .  A
C318        C359   1.456       .  S
N319        C320   1.356       .  A
C320        N321   1.359       .  A
C320        C358   1.462       .  S
C322        N323   1.357   1_455  A
C322        N327   1.362   1_455  A
C322        C374   1.487       .  S
N323        C324   1.354       .  A
C324        N325   1.355       .  A
C324        C347   1.456       .  S
N325        C326   1.356       .  A
C326        N327   1.359       .  A
C326        C348   1.460       .  S
N328        N329   1.319       .  A
N328       Mn559   2.193   1_554  S
N329        C336   1.349       .  A
N330        N331   1.320       .  A
N330       Mn346   2.201       .  S
N332        N333   1.319       .  A
N332       Mn357   2.196       .  S
N333        C337   1.350       .  A
N334        N335   1.320       .  A
N334       Mn548   2.197   1_554  S
N338        N950   1.316       .  A
N338        N339   1.321       .  A
N338       Mn368   2.201       .  S
N339        C953   1.351       .  A
N340        N341   1.320       .  A
N340        N948   1.316   1_455  A
N340       Mn548   2.201   1_554  S
N341        C348   1.351   1_455  A
N342        N946   1.316       .  A
N342        N343   1.321       .  A
N342       Mn570   2.203   1_554  S
N343        C954   1.351       .  A
N344        N944   1.316   1_455  A
N344        N345   1.319       .  A
N344       Mn346   2.195       .  S
N345        C347   1.350   1_455  A
Mn346       N435   2.198       .  S
Mn346       N441   2.197       .  S
C347        N945   1.351       .  A
C348        N949   1.351       .  A
N349        N350   1.322       .  A
N349        N961   1.316   1_455  A
N349       Mn357   2.206       .  S
N350        C358   1.352       .  A
N351        N959   1.316       .  A
N351        N352   1.320       .  A
N351       Mn571   2.197   1_554  S
N352        C965   1.350       .  A
N353        N957   1.316   1_455  A
N353        N354   1.320       .  A
N353       Mn559   2.200   1_554  S
N354        C359   1.350       .  A
N355        N955   1.316       .  A
N355        N356   1.320       .  A
N355       Mn369   2.201       .  S
N356        C964   1.351       .  A
Mn357       N429   2.196       .  S
Mn357       N454   2.200       .  S
Mn357      Cl370   2.546       .  S
C358        N962   1.351   1_455  A
C359        N958   1.350   1_455  A
N360        N361   1.320       .  A
N360       Mn570   2.197   1_554  S
N362        N363   1.320       .  A
N362       Mn369   2.198       .  S
N363        C372   1.350       .  A
N364        N365   1.318       .  A
N364       Mn368   2.192       .  S
N366        N367   1.321       .  A
N366       Mn571   2.203   1_554  S
N367        C371   1.351       .  A
Mn368       N443   2.205       .  S
Mn368       N461   2.198       .  S
Mn368      Cl673   2.547   1_565  S
Mn369       N452   2.196       .  S
Mn369       N467   2.204       .  S
Mn369      Cl976   2.547       .  S
Cl370      Mn671   2.547   1_455  S
Cl370      Mn975   2.547   1_455  S
C373        C980   1.403       .  A
C373        C378   1.404       .  A
C373        H380   1.084       .  S
C374        C979   1.403   1_455  A
C374        C375   1.419       .  A
C375        C376   1.404       .  A
C375        C382   1.509       .  S
C376        C377   1.404       .  A
C376        H381   1.084       .  S
C377        C984   1.420   1_455  A
C378        C983   1.419       .  A
C378        C379   1.509       .  S
C379        H383   1.111       .  S
C379        H384   1.110       .  S
C379        H385   1.109       .  S
C382        H386   1.109       .  S
C382        H387   1.110       .  S
C382        H388   1.111       .  S
C389        C394   1.402       .  A
C389        H396   1.083       .  S
C390        C391   1.423       .  A
C391        C392   1.403       .  A
C391        C398   1.510       .  S
C392        C393   1.405   1_545  A
C392        H397   1.083       .  S
C394        C395   1.510       .  S
C395        H399   1.111       .  S
C395        H400   1.110       .  S
C395        H401   1.110       .  S
C398        H402   1.110       .  S
C398        H403   1.110   1_545  S
C398        H404   1.111       .  S
C405        N406   1.361       .  A
C405        N410   1.358       .  A
C405        C494   1.497       .  S
C407        N408   1.354       .  A
C407        C438   1.455       .  S
N408        C409   1.354       .  A
C409        C437   1.454       .  S
C411        N412   1.362       .  A
C411        N416   1.358       .  A
C411        C491   1.498       .  S
C413        N414   1.355       .  A
C413        C472   1.456       .  S
N414        C415   1.354       .  A
C415        C473   1.455       .  S
C417        N418   1.358       .  A
C417        N422   1.363       .  A
C417        C478   1.492       .  S
N418        C419   1.355       .  A
C419        N420   1.355       .  A
C419        C460   1.456       .  S
N420        C421   1.355       .  A
C421        N422   1.359       .  A
C421        C459   1.461       .  S
C423        N424   1.358       .  A
C423        N428   1.362       .  A
C423        C475   1.491       .  S
N424        C425   1.355       .  A
C425        N426   1.355       .  A
C425        C448   1.457       .  S
N426        C427   1.356       .  A
C427        N428   1.358       .  A
C427        C449   1.460       .  S
N429        N430   1.319       .  A
N430        C437   1.349       .  A
N431        N432   1.319       .  A
N431       Mn447   2.195       .  S
N433        N434   1.320       .  A
N433       Mn458   2.198       .  S
N434        C438   1.351       .  A
N435        N436   1.320       .  A
N439       N1051   1.316       .  A
N439        N440   1.320       .  A
N439       Mn469   2.196       .  S
N440       C1054   1.350       .  A
N441        N442   1.320       .  A
N441       N1049   1.316   1_455  A
N442        C449   1.350   1_455  A
N443       N1047   1.316       .  A
N443        N444   1.322       .  A
N444       C1055   1.352       .  A
N445       N1045   1.316   1_455  A
N445        N446   1.320       .  A
N445       Mn447   2.201       .  S
N446        C448   1.351   1_455  A
Mn447       N536   2.205       .  S
Mn447       N542   2.195       .  S
C448       N1046   1.350       .  A
C449       N1050   1.352       .  A
N450        N451   1.322       .  A
N450       N1062   1.316   1_455  A
N450       Mn458   2.209       .  S
N451        C459   1.353       .  A
N452       N1060   1.316       .  A
N452        N453   1.319       .  A
N453       C1066   1.350       .  A
N454       N1058   1.316   1_455  A
N454        N455   1.320       .  A
N455        C460   1.351       .  A
N456       N1056   1.316       .  A
N456        N457   1.320       .  A
N456       Mn470   2.197       .  S
N457       C1065   1.350       .  A
Mn458       N530   2.200       .  S
Mn458       N555   2.201       .  S
Mn458      Cl471   2.548       .  S
C459       N1063   1.350   1_455  A
C460       N1059   1.350   1_455  A
N461        N462   1.320       .  A
N463        N464   1.321       .  A
N463       Mn470   2.202       .  S
N464        C473   1.351       .  A
N465        N466   1.319       .  A
N465       Mn469   2.196       .  S
N467        N468   1.321       .  A
N468        C472   1.351       .  A
Mn469       N544   2.207       .  S
Mn469       N562   2.195       .  S
Mn469      Cl774   2.548   1_565  S
Mn470       N553   2.200       .  S
Mn470       N568   2.200       .  S
Mn470     Cl1077   2.546       .  S
Cl471      Mn772   2.548   1_455  S
Cl471     Mn1076   2.546   1_455  S
C474       C1081   1.405       .  A
C474        C479   1.404       .  A
C474        H481   1.083       .  S
C475       C1080   1.405       .  A
C475        C476   1.420   1_655  A
C476        C477   1.404       .  A
C476        C483   1.509       .  S
C477        C478   1.405       .  A
C477        H482   1.084       .  S
C478       C1085   1.420   1_455  A
C479       C1084   1.420       .  A
C479        C480   1.509       .  S
C480        H484   1.111       .  S
C480        H485   1.110       .  S
C480        H486   1.109       .  S
C483        H487   1.109       .  S
C483        H488   1.110       .  S
C483        H489   1.111       .  S
C490        C495   1.404       .  A
C490        H497   1.083       .  S
C491        C492   1.422       .  A
C492        C493   1.404       .  A
C492        C499   1.510       .  S
C493        C494   1.408   1_545  A
C493        H498   1.083       .  S
C495        C496   1.510       .  S
C496        H500   1.111       .  S
C496        H501   1.110       .  S
C496        H502   1.110       .  S
C499        H503   1.110       .  S
C499        H504   1.110   1_545  S
C499        H505   1.111       .  S
C506        N507   1.360       .  A
C506        N511   1.359       .  A
C506        C595   1.487   1_565  S
C508        N509   1.355       .  A
C508        C539   1.457       .  S
N509        C510   1.355       .  A
C510        C538   1.456       .  S
C512        N513   1.360       .  A
C512        N517   1.358       .  A
C512        C592   1.486       .  S
C514        N515   1.355       .  A
C514        C573   1.455       .  S
N515        C516   1.354       .  A
C516        C574   1.454       .  S
C518        N519   1.358       .  A
C518        N523   1.361       .  A
C518        C579   1.490       .  S
N519        C520   1.356       .  A
C520        N521   1.356       .  A
C520        C561   1.458       .  S
N521        C522   1.356       .  A
C522        N523   1.356       .  A
C522        C560   1.458       .  S
C524        N525   1.358       .  A
C524        N529   1.362       .  A
C524        C576   1.491       .  S
N525        C526   1.354       .  A
C526        N527   1.354       .  A
C526        C549   1.455       .  S
N527        C528   1.355       .  A
C528        N529   1.358       .  A
C528        C550   1.458       .  S
N530        N531   1.320       .  A
N531        C538   1.350       .  A
N532        N533   1.320       .  A
N532       Mn548   2.201       .  S
N534        N535   1.320       .  A
N534       Mn559   2.196       .  S
N535        C539   1.350       .  A
N536        N537   1.321       .  A
N540       N1152   1.316       .  A
N540        N541   1.319       .  A
N540       Mn570   2.198       .  S
N541       C1155   1.350       .  A
N542        N543   1.319       .  A
N542       N1150   1.316   1_455  A
N543        C550   1.350   1_455  A
N544       N1148   1.316       .  A
N544        N545   1.321       .  A
N545       C1156   1.352       .  A
N546       N1146   1.316   1_455  A
N546        N547   1.320       .  A
N546       Mn548   2.196       .  S
N547        C549   1.351   1_455  A
C549       N1147   1.350       .  A
C550       N1151   1.352       .  A
N551        N552   1.322       .  A
N551       N1163   1.316   1_455  A
N551       Mn559   2.205       .  S
N552        C560   1.352       .  A
N553       N1161   1.316       .  A
N553        N554   1.320       .  A
N554       C1167   1.351       .  A
N555       N1159   1.316   1_455  A
N555        N556   1.321       .  A
N556        C561   1.351       .  A
N557       N1157   1.316       .  A
N557        N558   1.319       .  A
N557       Mn571   2.196       .  S
N558       C1166   1.349       .  A
Mn559      Cl572   2.547       .  S
C560       N1164   1.349   1_455  A
C561       N1160   1.351   1_455  A
N562        N563   1.319       .  A
N564        N565   1.321       .  A
N564       Mn571   2.200       .  S
N565        C574   1.351       .  A
N566        N567   1.319       .  A
N566       Mn570   2.195       .  S
N568        N569   1.320       .  A
N569        C573   1.350       .  A
Mn570      Cl875   2.547   1_565  S
Mn571     Cl1178   2.546       .  S
Cl572      Mn873   2.547   1_455  S
Cl572     Mn1177   2.546   1_455  S
C575       C1182   1.405       .  A
C575        C580   1.404       .  A
C575        H582   1.083       .  S
C576       C1181   1.405       .  A
C576        C577   1.420   1_655  A
C577        C578   1.403       .  A
C577        C584   1.509       .  S
C578        C579   1.405       .  A
C578        H583   1.084       .  S
C579       C1186   1.419   1_455  A
C580       C1185   1.419       .  A
C580        C581   1.509       .  S
C581        H585   1.111       .  S
C581        H586   1.110       .  S
C581        H587   1.109       .  S
C584        H588   1.110       .  S
C584        H589   1.110       .  S
C584        H590   1.111       .  S
C591        C596   1.403       .  A
C591        H598   1.083       .  S
C592        C593   1.418   1_545  A
C593        C594   1.403       .  A
C593        C600   1.509       .  S
C594        C595   1.406   1_565  A
C594        H599   1.084       .  S
C596        C597   1.509       .  S
C597        H601   1.111       .  S
C597        H602   1.110       .  S
C597        H603   1.110       .  S
C600        H604   1.109       .  S
C600        H605   1.110       .  S
C600        H606   1.111       .  S
C607        N608   1.362       .  A
C607        N612   1.356       .  A
C607        C696   1.496       .  S
N608        C912   1.357       .  A
C609        N911   1.358       .  A
C609        N610   1.355       .  A
C609        C640   1.457       .  S
N610        C611   1.353       .  A
C611        N915   1.352       .  A
C611        C639   1.451       .  S
N612        C914   1.353       .  A
C613        N614   1.362       .  A
C613        N618   1.356       .  A
C613        C693   1.496       .  S
N614        C918   1.357       .  A
C615        N917   1.358       .  A
C615        N616   1.354       .  A
C615        C674   1.458       .  S
N616        C617   1.354       .  A
C617        N921   1.352       .  A
C617        C675   1.451       .  S
N618        C920   1.353       .  A
C619        N620   1.357       .  A
C619        N624   1.363       .  A
C619        C680   1.489       .  S
N620        C621   1.354       .  A
C621        N622   1.355       .  A
C621        C662   1.456       .  S
N622        C623   1.356       .  A
C623        N624   1.360       .  A
C623        C661   1.461       .  S
C625        N626   1.357       .  A
C625        N630   1.362       .  A
C625        C677   1.489       .  S
N626        C627   1.354       .  A
C627        N628   1.355       .  A
C627        C650   1.456       .  S
N628        C629   1.356       .  A
C629        N630   1.359       .  A
C629        C651   1.460       .  S
N631        N632   1.319       .  A
N631        N940   1.316   1_545  A
N631       Mn862   2.193   1_554  S
N632        C639   1.349   1_545  A
N633        N938   1.316       .  A
N633        N634   1.320       .  A
N633       Mn649   2.198       .  S
N634        C943   1.350       .  A
N635        N936   1.316   1_545  A
N635        N636   1.320       .  A
N635       Mn660   2.197       .  S
N636        C640   1.350   1_545  A
N637        N934   1.316       .  A
N637        N638   1.320       .  A
N637       Mn851   2.198   1_554  S
N638        C942   1.350       .  A
C639        N941   1.350       .  A
C640        N937   1.351       .  A
N641        N642   1.321       .  A
N641       Mn671   2.198       .  S
N643        N644   1.320       .  A
N643       Mn851   2.202   1_554  S
N644        C651   1.351       .  A
N645        N646   1.321       .  A
N645       Mn873   2.203   1_554  S
N647        N648   1.319       .  A
N647       Mn649   2.197       .  S
N648        C650   1.350       .  A
Mn649       N738   2.198       .  S
Mn649       N744   2.196       .  S
Mn649      Cl976   2.547       .  S
N652        N653   1.321       .  A
N652       Mn660   2.205       .  S
N653        C661   1.352       .  A
N654        N655   1.319       .  A
N654       Mn874   2.196   1_554  S
N656        N657   1.321       .  A
N656       Mn862   2.201   1_554  S
N657        C662   1.351       .  A
N658        N659   1.321       .  A
N658       Mn672   2.202       .  S
Mn660       N732   2.195       .  S
Mn660       N757   2.198       .  S
Mn660      Cl673   2.545       .  S
N663        N664   1.320       .  A
N663        N972   1.316       .  A
N663       Mn873   2.196   1_554  S
N664        C977   1.350       .  A
N665        N666   1.320       .  A
N665        N970   1.316   1_545  A
N665       Mn672   2.197       .  S
N666        C675   1.350       .  A
N667        N968   1.316       .  A
N667        N668   1.319       .  A
N667       Mn671   2.193       .  S
N668        C978   1.349       .  A
N669        N966   1.316   1_545  A
N669        N670   1.320       .  A
N669       Mn874   2.203   1_554  S
N670        C674   1.351       .  A
Mn671       N746   2.208       .  S
Mn671       N764   2.194       .  S
Mn672       N755   2.196       .  S
Mn672       N770   2.204       .  S
Cl673      Mn952   2.547   1_545  S
C674        N967   1.351   1_545  A
C675        N971   1.349   1_545  A
C676        C681   1.404       .  A
C676        H683   1.084       .  S
C677        C678   1.420       .  A
C678        C679   1.404       .  A
C678        C685   1.509       .  S
C679        C680   1.404       .  A
C679        H684   1.084       .  S
C681        C682   1.509       .  S
C682        H686   1.111       .  S
C682        H687   1.110       .  S
C682        H688   1.109       .  S
C685        H689   1.109       .  S
C685        H690   1.110       .  S
C685        H691   1.111       .  S
C692        C996   1.405   1_565  A
C692        C697   1.402       .  A
C692        H699   1.083       .  S
C693        C995   1.406       .  A
C693        C694   1.423       .  A
C694        C695   1.403       .  A
C694        C701   1.510       .  S
C695        C696   1.407       .  A
C695        H700   1.083       .  S
C696       C1000   1.422       .  A
C697        C999   1.423       .  A
C697        C698   1.510       .  S
C698        H702   1.111       .  S
C698        H703   1.110   1_565  S
C698        H704   1.110       .  S
C701        H705   1.110       .  S
C701        H706   1.110       .  S
C701        H707   1.111       .  S
C708        N709   1.361       .  A
C708        N713   1.358       .  A
C708        C797   1.497       .  S
N709       C1013   1.355       .  A
C710       N1012   1.355       .  A
C710        N711   1.354       .  A
C710        C741   1.453       .  S
N711        C712   1.354       .  A
C712       N1016   1.355       .  A
C712        C740   1.454       .  S
N713       C1015   1.355       .  A
C714        N715   1.362       .  A
C714        N719   1.358       .  A
C714        C794   1.497       .  S
N715       C1019   1.356       .  A
C716       N1018   1.356       .  A
C716        N717   1.355       .  A
C716        C775   1.458       .  S
N717        C718   1.355       .  A
C718       N1022   1.355       .  A
C718        C776   1.458       .  S
N719       C1021   1.355       .  A
C720        N721   1.358       .  A
C720        N725   1.362       .  A
C720        C781   1.490       .  S
N721        C722   1.355       .  A
C722        N723   1.355       .  A
C722        C763   1.455       .  S
N723        C724   1.355       .  A
C724        N725   1.358       .  A
C724        C762   1.460       .  S
C726        N727   1.358       .  A
C726        N731   1.362       .  A
C726        C778   1.490       .  S
N727        C728   1.355       .  A
C728        N729   1.356       .  A
C728        C751   1.457       .  S
N729        C730   1.356       .  A
C730        N731   1.358       .  A
C730        C752   1.460       .  S
N732        N733   1.319       .  A
N732       N1041   1.316   1_545  A
N733        C740   1.349   1_545  A
N734       N1039   1.316       .  A
N734        N735   1.320       .  A
N734       Mn750   2.197       .  S
N735       C1044   1.349       .  A
N736       N1037   1.316   1_545  A
N736        N737   1.319       .  A
N736       Mn761   2.195       .  S
N737        C741   1.350   1_545  A
N738       N1035   1.316       .  A
N738        N739   1.320       .  A
N739       C1043   1.350       .  A
C740       N1042   1.351       .  A
C741       N1038   1.349       .  A
N742        N743   1.320       .  A
N742       Mn772   2.198       .  S
N744        N745   1.319       .  A
N745        C752   1.350       .  A
N746        N747   1.322       .  A
N748        N749   1.320       .  A
N748       Mn750   2.200       .  S
N749        C751   1.351       .  A
Mn750       N839   2.201       .  S
Mn750       N845   2.199       .  S
Mn750     Cl1077   2.547       .  S
N753        N754   1.322       .  A
N753       Mn761   2.209       .  S
N754        C762   1.353       .  A
N755        N756   1.320       .  A
N757        N758   1.320       .  A
N758        C763   1.350       .  A
N759        N760   1.319       .  A
N759       Mn773   2.192       .  S
Mn761       N833   2.200       .  S
Mn761       N858   2.202       .  S
Mn761      Cl774   2.547       .  S
N764        N765   1.319       .  A
N764       N1073   1.316       .  A
N765       C1078   1.350       .  A
N766        N767   1.321       .  A
N766       N1071   1.316   1_545  A
N766       Mn773   2.205       .  S
N767        C776   1.352       .  A
N768       N1069   1.316       .  A
N768        N769   1.319       .  A
N768       Mn772   2.195       .  S
N769       C1079   1.349       .  A
N770       N1067   1.316   1_545  A
N770        N771   1.321       .  A
N771        C775   1.351       .  A
Mn772       N847   2.205       .  S
Mn772       N865   2.196       .  S
Mn773       N856   2.200       .  S
Mn773       N871   2.197       .  S
Cl774     Mn1053   2.546   1_545  S
C775       N1068   1.351   1_545  A
C776       N1072   1.349   1_545  A
C777        C782   1.404       .  A
C777        H784   1.083       .  S
C778        C779   1.420       .  A
C779        C780   1.404       .  A
C779        C786   1.509       .  S
C780        C781   1.405       .  A
C780        H785   1.084       .  S
C782        C783   1.509       .  S
C783        H787   1.111       .  S
C783        H788   1.110       .  S
C783        H789   1.109       .  S
C786        H790   1.109       .  S
C786        H791   1.110       .  S
C786        H792   1.111       .  S
C793       C1097   1.407   1_565  A
C793        C798   1.403       .  A
C793        H800   1.083       .  S
C794       C1096   1.407       .  A
C794        C795   1.421       .  A
C795        C796   1.403       .  A
C795        C802   1.510       .  S
C796        C797   1.407       .  A
C796        H801   1.083       .  S
C797       C1101   1.421       .  A
C798       C1100   1.421       .  A
C798        C799   1.510       .  S
C799        H803   1.111       .  S
C799        H804   1.110   1_565  S
C799        H805   1.110       .  S
C802        H806   1.110       .  S
C802        H807   1.110       .  S
C802        H808   1.111       .  S
C809        N810   1.361       .  A
C809        N814   1.358       .  A
C809        C898   1.492       .  S
N810       C1114   1.357       .  A
C811       N1113   1.356       .  A
C811        N812   1.355       .  A
C811        C842   1.456       .  S
N812        C813   1.355       .  A
C813       N1117   1.356       .  A
C813        C841   1.458       .  S
N814       C1116   1.355       .  A
C815        N816   1.361       .  A
C815        N820   1.357       .  A
C815        C895   1.491       .  S
N816       C1120   1.356       .  A
C817       N1119   1.355       .  A
C817        N818   1.355       .  A
C817        C876   1.454       .  S
N818        C819   1.354       .  A
C819       N1123   1.356       .  A
C819        C877   1.455       .  S
N820       C1122   1.355       .  A
C821        N822   1.359       .  A
C821        N826   1.361       .  A
C821        C882   1.490       .  S
N822        C823   1.356       .  A
C823        N824   1.356       .  A
C823        C864   1.459       .  S
N824        C825   1.356       .  A
C825        N826   1.356       .  A
C825        C863   1.458       .  S
C827        N828   1.357       .  A
C827        N832   1.363       .  A
C827        C879   1.490       .  S
N828        C829   1.354       .  A
C829        N830   1.354       .  A
C829        C852   1.455       .  S
N830        C831   1.355       .  A
C831        N832   1.359       .  A
C831        C853   1.460       .  S
N833        N834   1.320       .  A
N833       N1142   1.316   1_545  A
N834        C841   1.350   1_545  A
N835       N1140   1.316       .  A
N835        N836   1.320       .  A
N835       Mn851   2.201       .  S
N836       C1145   1.351       .  A
N837       N1138   1.316   1_545  A
N837        N838   1.320       .  A
N837       Mn862   2.197       .  S
N838        C842   1.350   1_545  A
N839       N1136   1.316       .  A
N839        N840   1.321       .  A
N840       C1144   1.351       .  A
C841       N1143   1.352       .  A
C842       N1139   1.350       .  A
N843        N844   1.319       .  A
N843       Mn873   2.197       .  S
N845        N846   1.320       .  A
N846        C853   1.351       .  A
N847        N848   1.321       .  A
N849        N850   1.320       .  A
N849       Mn851   2.196       .  S
N850        C852   1.351       .  A
Mn851     Cl1178   2.546       .  S
N854        N855   1.322       .  A
N854       Mn862   2.204       .  S
N855        C863   1.352       .  A
N856        N857   1.320       .  A
N858        N859   1.321       .  A
N859        C864   1.351       .  A
N860        N861   1.319       .  A
N860       Mn874   2.196       .  S
Mn862      Cl875   2.548       .  S
N865        N866   1.320       .  A
N865       N1174   1.316       .  A
N866       C1179   1.350       .  A
N867        N868   1.321       .  A
N867       N1172   1.316   1_545  A
N867       Mn874   2.200       .  S
N868        C877   1.351       .  A
N869       N1170   1.316       .  A
N869        N870   1.319       .  A
N869       Mn873   2.194       .  S
N870       C1180   1.349       .  A
N871       N1168   1.316   1_545  A
N871        N872   1.320       .  A
N872        C876   1.350       .  A
Cl875     Mn1154   2.546   1_545  S
C876       N1169   1.350   1_545  A
C877       N1173   1.349   1_545  A
C878        C883   1.405       .  A
C878        H885   1.084       .  S
C879        C880   1.420       .  A
C880        C881   1.402       .  A
C880        C887   1.510       .  S
C881        C882   1.405       .  A
C881        H886   1.084       .  S
C883        C884   1.508       .  S
C884        H888   1.111       .  S
C884        H889   1.110       .  S
C884        H890   1.109       .  S
C887        H891   1.110       .  S
C887        H892   1.110       .  S
C887        H893   1.111       .  S
C894       C1198   1.405       .  A
C894        C899   1.403       .  A
C894        H901   1.084       .  S
C895       C1197   1.405       .  A
C895        C896   1.420       .  A
C896        C897   1.403       .  A
C896        C903   1.509       .  S
C897        C898   1.406       .  A
C897        H902   1.083       .  S
C898       C1202   1.420       .  A
C899       C1201   1.417       .  A
C899        C900   1.509       .  S
C900        H904   1.111       .  S
C900        H905   1.110       .  S
C900        H906   1.109       .  S
C903        H907   1.110       .  S
C903        H908   1.110       .  S
C903        H909   1.111       .  S
C910        N911   1.363       .  A
C910        N915   1.355       .  A
C910        C999   1.494       .  S
C912        N913   1.354       .  A
C912        C943   1.454       .  S
N913        C914   1.353       .  A
C914        C942   1.452       .  S
C916        N917   1.363       .  A
C916        N921   1.355       .  A
C916        C996   1.495       .  S
C918        N919   1.354       .  A
C918        C977   1.457       .  S
N919        C920   1.354       .  A
C920        C978   1.452       .  S
C922        N923   1.357       .  A
C922        N927   1.363       .  A
C922        C983   1.488       .  S
N923        C924   1.354       .  A
C924        N925   1.355       .  A
C924        C965   1.456       .  S
N925        C926   1.356       .  A
C926        N927   1.360       .  A
C926        C964   1.462       .  S
C928        N929   1.357       .  A
C928        N933   1.362       .  A
C928        C980   1.487       .  S
N929        C930   1.354       .  A
C930        N931   1.355       .  A
C930        C953   1.456       .  S
N931        C932   1.356       .  A
C932        N933   1.359       .  A
C932        C954   1.460       .  S
N934        N935   1.319       .  A
N934      Mn1165   2.193   1_554  S
N935        C942   1.349       .  A
N936        N937   1.320       .  A
N936       Mn952   2.201       .  S
N938        N939   1.319       .  A
N938       Mn963   2.196       .  S
N939        C943   1.350       .  A
N940        N941   1.320       .  A
N940      Mn1154   2.197   1_554  S
N944        N945   1.321       .  A
N944       Mn974   2.200       .  S
N946        N947   1.320       .  A
N946      Mn1154   2.201   1_554  S
N947        C954   1.351       .  A
N948        N949   1.321       .  A
N948      Mn1176   2.203   1_554  S
N950        N951   1.319       .  A
N950       Mn952   2.195       .  S
N951        C953   1.350       .  A
Mn952      N1041   2.198       .  S
Mn952      N1047   2.198       .  S
N955        N956   1.322       .  A
N955       Mn963   2.206       .  S
N956        C964   1.352       .  A
N957        N958   1.320       .  A
N957      Mn1177   2.197   1_554  S
N959        N960   1.321       .  A
N959      Mn1165   2.201   1_554  S
N960        C965   1.350       .  A
N961        N962   1.320       .  A
N961       Mn975   2.201       .  S
Mn963      N1035   2.196       .  S
Mn963      N1060   2.200       .  S
Mn963      Cl976   2.546       .  S
N966        N967   1.320       .  A
N966      Mn1176   2.197   1_554  S
N968        N969   1.320       .  A
N968       Mn975   2.198       .  S
N969        C978   1.350       .  A
N970        N971   1.318       .  A
N970       Mn974   2.192       .  S
N972        N973   1.320       .  A
N972      Mn1177   2.202   1_554  S
N973        C977   1.351       .  A
Mn974      N1049   2.205       .  S
Mn974      N1067   2.198       .  S
Mn975      N1058   2.195       .  S
Mn975      N1073   2.204       .  S
C979        C984   1.404       .  A
C979        H986   1.084       .  S
C980        C981   1.419       .  A
C981        C982   1.404       .  A
C981        C988   1.509       .  S
C982        C983   1.404       .  A
C982        H987   1.084       .  S
C984        C985   1.509       .  S
C985        H989   1.111       .  S
C985        H990   1.110       .  S
C985        H991   1.109       .  S
C988        H992   1.109       .  S
C988        H993   1.110       .  S
C988        H994   1.111       .  S
C995       C1000   1.402       .  A
C995       H1002   1.083       .  S
C996        C997   1.423       .  A
C997        C998   1.403       .  A
C997       C1004   1.510       .  S
C998        C999   1.405   1_545  A
C998       H1003   1.083       .  S
C1000      C1001   1.510       .  S
C1001      H1005   1.111       .  S
C1001      H1006   1.110       .  S
C1001      H1007   1.110       .  S
C1004      H1008   1.110       .  S
C1004      H1009   1.110   1_545  S
C1004      H1010   1.111       .  S
C1011      N1012   1.361       .  A
C1011      N1016   1.358       .  A
C1011      C1100   1.497       .  S
C1013      N1014   1.354       .  A
C1013      C1044   1.455       .  S
N1014      C1015   1.354       .  A
C1015      C1043   1.454       .  S
C1017      N1018   1.362       .  A
C1017      N1022   1.358       .  A
C1017      C1097   1.498       .  S
C1019      N1020   1.355       .  A
C1019      C1078   1.456       .  S
N1020      C1021   1.354       .  A
C1021      C1079   1.455       .  S
C1023      N1024   1.358       .  A
C1023      N1028   1.363       .  A
C1023      C1084   1.492       .  S
N1024      C1025   1.355       .  A
C1025      N1026   1.355       .  A
C1025      C1066   1.456       .  S
N1026      C1027   1.355       .  A
C1027      N1028   1.359       .  A
C1027      C1065   1.461       .  S
C1029      N1030   1.358       .  A
C1029      N1034   1.362       .  A
C1029      C1081   1.491       .  S
N1030      C1031   1.355       .  A
C1031      N1032   1.355       .  A
C1031      C1054   1.457       .  S
N1032      C1033   1.356       .  A
C1033      N1034   1.358       .  A
C1033      C1055   1.460       .  S
N1035      N1036   1.319       .  A
N1036      C1043   1.349       .  A
N1037      N1038   1.319       .  A
N1037     Mn1053   2.194       .  S
N1039      N1040   1.320       .  A
N1039     Mn1064   2.198       .  S
N1040      C1044   1.351       .  A
N1041      N1042   1.320       .  A
N1045      N1046   1.320       .  A
N1045     Mn1075   2.196       .  S
N1047      N1048   1.320       .  A
N1048      C1055   1.350       .  A
N1049      N1050   1.322       .  A
N1051      N1052   1.320       .  A
N1051     Mn1053   2.201       .  S
N1052      C1054   1.351       .  A
Mn1053     N1142   2.206       .  S
Mn1053     N1148   2.195       .  S
N1056      N1057   1.322       .  A
N1056     Mn1064   2.209       .  S
N1057      C1065   1.353       .  A
N1058      N1059   1.319       .  A
N1060      N1061   1.320       .  A
N1061      C1066   1.351       .  A
N1062      N1063   1.320       .  A
N1062     Mn1076   2.196       .  S
Mn1064     N1136   2.200       .  S
Mn1064     N1161   2.201       .  S
Mn1064    Cl1077   2.548       .  S
N1067      N1068   1.320       .  A
N1069      N1070   1.321       .  A
N1069     Mn1076   2.202       .  S
N1070      C1079   1.351       .  A
N1071      N1072   1.319       .  A
N1071     Mn1075   2.196       .  S
N1073      N1074   1.321       .  A
N1074      C1078   1.351       .  A
Mn1075     N1150   2.207       .  S
Mn1075     N1168   2.195       .  S
Mn1076     N1159   2.200       .  S
Mn1076     N1174   2.199       .  S
C1080      C1085   1.404       .  A
C1080      H1087   1.083       .  S
C1081      C1082   1.420       .  A
C1082      C1083   1.404       .  A
C1082      C1089   1.509       .  S
C1083      C1084   1.405       .  A
C1083      H1088   1.084       .  S
C1085      C1086   1.509       .  S
C1086      H1090   1.111       .  S
C1086      H1091   1.110       .  S
C1086      H1092   1.109       .  S
C1089      H1093   1.109       .  S
C1089      H1094   1.110       .  S
C1089      H1095   1.111       .  S
C1096      C1101   1.404       .  A
C1096      H1103   1.083       .  S
C1097      C1098   1.422       .  A
C1098      C1099   1.404       .  A
C1098      C1105   1.510       .  S
C1099      C1100   1.408   1_545  A
C1099      H1104   1.083       .  S
C1101      C1102   1.510       .  S
C1102      H1106   1.111       .  S
C1102      H1107   1.110       .  S
C1102      H1108   1.110       .  S
C1105      H1109   1.110       .  S
C1105      H1110   1.110   1_545  S
C1105      H1111   1.111       .  S
C1112      N1113   1.360       .  A
C1112      N1117   1.359       .  A
C1112      C1201   1.486   1_565  S
C1114      N1115   1.355       .  A
C1114      C1145   1.457       .  S
N1115      C1116   1.355       .  A
C1116      C1144   1.456       .  S
C1118      N1119   1.360       .  A
C1118      N1123   1.358       .  A
C1118      C1198   1.485       .  S
C1120      N1121   1.355       .  A
C1120      C1179   1.455       .  S
N1121      C1122   1.354       .  A
C1122      C1180   1.454       .  S
C1124      N1125   1.358       .  A
C1124      N1129   1.361       .  A
C1124      C1185   1.490       .  S
N1125      C1126   1.356       .  A
C1126      N1127   1.356       .  A
C1126      C1167   1.458       .  S
N1127      C1128   1.356       .  A
C1128      N1129   1.356       .  A
C1128      C1166   1.458       .  S
C1130      N1131   1.358       .  A
C1130      N1135   1.362       .  A
C1130      C1182   1.491       .  S
N1131      C1132   1.354       .  A
C1132      N1133   1.354       .  A
C1132      C1155   1.455       .  S
N1133      C1134   1.355       .  A
C1134      N1135   1.358       .  A
C1134      C1156   1.458       .  S
N1136      N1137   1.320       .  A
N1137      C1144   1.350       .  A
N1138      N1139   1.320       .  A
N1138     Mn1154   2.200       .  S
N1140      N1141   1.320       .  A
N1140     Mn1165   2.196       .  S
N1141      C1145   1.350       .  A
N1142      N1143   1.321       .  A
N1146      N1147   1.319       .  A
N1146     Mn1176   2.198       .  S
N1148      N1149   1.319       .  A
N1149      C1156   1.350       .  A
N1150      N1151   1.321       .  A
N1152      N1153   1.320       .  A
N1152     Mn1154   2.196       .  S
N1153      C1155   1.351       .  A
N1157      N1158   1.322       .  A
N1157     Mn1165   2.205       .  S
N1158      C1166   1.352       .  A
N1159      N1160   1.320       .  A
N1161      N1162   1.321       .  A
N1162      C1167   1.351       .  A
N1163      N1164   1.319       .  A
N1163     Mn1177   2.196       .  S
Mn1165    Cl1178   2.547       .  S
N1168      N1169   1.319       .  A
N1170      N1171   1.321       .  A
N1170     Mn1177   2.200       .  S
N1171      C1180   1.351       .  A
N1172      N1173   1.319       .  A
N1172     Mn1176   2.195       .  S
N1174      N1175   1.320       .  A
N1175      C1179   1.350       .  A
C1181      C1186   1.404       .  A
C1181      H1188   1.083       .  S
C1182      C1183   1.420       .  A
C1183      C1184   1.403       .  A
C1183      C1190   1.509       .  S
C1184      C1185   1.405       .  A
C1184      H1189   1.084       .  S
C1186      C1187   1.509       .  S
C1187      H1191   1.111       .  S
C1187      H1192   1.110       .  S
C1187      H1193   1.109       .  S
C1190      H1194   1.110       .  S
C1190      H1195   1.110       .  S
C1190      H1196   1.111       .  S
C1197      C1202   1.403       .  A
C1197      H1204   1.083       .  S
C1198      C1199   1.417   1_545  A
C1199      C1200   1.403       .  A
C1199      C1206   1.509       .  S
C1200      C1201   1.405   1_565  A
C1200      H1205   1.084       .  S
C1202      C1203   1.510       .  S
C1203      H1207   1.111       .  S
C1203      H1208   1.110       .  S
C1203      H1209   1.110       .  S
C1206      H1210   1.109       .  S
C1206      H1211   1.110       .  S
C1206      H1212   1.111       .  S
