geometry optimzed in LAMMPS
_audit_creation_date              2020-11-30 
_audit_creation_method            'lammps2cif' 
_symmetry_space_group_name_H-M    'P1' 
_symmetry_Int_Tables_number       1 
_symmetry_cell_setting            triclinic 
loop_ 
_symmetry_equiv_pos_as_xyz 
  x,y,z 
_cell_length_a                    30.55236091 
_cell_length_b                    30.57173467602418 
_cell_length_c                    45.59346500768365 
_cell_angle_alpha                 89.92681745416466 
_cell_angle_beta                  90.04421694574303 
_cell_angle_gamma                 120.15369544193197 
loop_ 
_atom_site_label 
_atom_site_type_symbol 
_atom_site_fract_x 
_atom_site_fract_y 
_atom_site_fract_z 
_atom_site_charge 
N1          N  0.59239159  0.79476672  0.09746442    -0.36000
N2          N  0.56350049  0.71514371  0.13921853    -0.56600
N3          N  0.52795370  0.76368369  0.18103144    -0.36000
N4          N  0.56038078  0.84489360  0.13807375    -0.56600
C5          C  0.61605044  0.77117671  0.08640555     0.27600
C6          C  0.61545130  0.84192619  0.08610950     0.27600
C7          C  0.53687429  0.73310817  0.19845120     0.27600
C8          C  0.53466377  0.80326873  0.19766705     0.27600
C9          C  0.57092816  0.69295623  0.11553033     0.36200
C10         C  0.54007220  0.67850281  0.15957040     0.36200
C11         C  0.56768867  0.87346411  0.11389017     0.36200
C12         C  0.53516697  0.85742850  0.15747638     0.36200
C13         C  0.65456562  0.80360297  0.06769489    -0.21300
C14         C  0.65422140  0.84845361  0.06752726    -0.21300
C15         C  0.54954632  0.75350258  0.22633294    -0.21300
C16         C  0.54823348  0.79796640  0.22580520    -0.21300
C17         C  0.55121226  0.64181719  0.12053366    -0.22300
C18         C  0.53204338  0.63279658  0.14849410    -0.22300
C19         C  0.54599831  0.90336229  0.11755691    -0.22300
C20         C  0.52549127  0.89318994  0.14518313    -0.22300
C21         C  0.60062757  0.71981396  0.09106171    -0.17700
C22         C  0.59921304  0.87727787  0.09029658    -0.17700
C23         C  0.52999559  0.84444102  0.18759403    -0.17700
C24         C  0.53448872  0.68779576  0.18939457    -0.17700
H25         H  0.67971872  0.79550185  0.05514327     0.15200
H26         H  0.67903269  0.88172252  0.05477920     0.15200
H27         H  0.56176403  0.73944535  0.24443309     0.15200
H28         H  0.55941859  0.82520595  0.24333627     0.15200
H29         H  0.55289353  0.61448222  0.10622196     0.13500
H30         H  0.51718573  0.59741866  0.16011644     0.13500
H31         H  0.54714113  0.93140151  0.10256671     0.13500
H32         H  0.50862167  0.91250734  0.15581665     0.13500
H33         H  0.55829821  0.77752350  0.10892705     0.26800
H34         H  0.51521203  0.75645029  0.15937662     0.26800
N35         N  0.59376913  0.79562988  0.43442557    -0.36000
N36         N  0.56027767  0.71275928  0.39417326    -0.56600
N37         N  0.52462001  0.76105135  0.35256053    -0.36000
N38         N  0.56297751  0.84638272  0.39323161    -0.56600
C39         C  0.61647507  0.77131840  0.44586808     0.27600
C40         C  0.61744326  0.84286614  0.44560627     0.27600
C41         C  0.52407108  0.72463043  0.33530530     0.27600
C42         C  0.52566911  0.79710881  0.33469507     0.27600
C43         C  0.56803932  0.69167482  0.41828199     0.36200
C44         C  0.53386269  0.67463439  0.37514314     0.36200
C45         C  0.57171446  0.87612020  0.41703896     0.36200
C46         C  0.53892011  0.85984327  0.37346946     0.36200
C47         C  0.65507968  0.80343822  0.46462534    -0.21300
C48         C  0.65564733  0.84874104  0.46449103    -0.21300
C49         C  0.52220887  0.73655713  0.30622179    -0.21300
C50         C  0.52310906  0.78204234  0.30586344    -0.21300
C51         C  0.54576765  0.63989721  0.41486121    -0.22300
C52         C  0.52435316  0.62922825  0.38748894    -0.22300
C53         C  0.55233565  0.90791283  0.41268359    -0.22300
C54         C  0.53218106  0.89801112  0.38499533    -0.22300
C55         C  0.59980697  0.71954519  0.44178451    -0.17700
C56         C  0.60215027  0.87889012  0.44107111    -0.17700
C57         C  0.52938224  0.84327711  0.34387985    -0.17700
C58         C  0.52559128  0.68135412  0.34531878    -0.17700
H59         H  0.67949345  0.79476422  0.47755256     0.15200
H60         H  0.68062429  0.88186311  0.47726941     0.15200
H61         H  0.52028522  0.71485320  0.28718275     0.15200
H62         H  0.52189346  0.80163916  0.28655393     0.15200
H63         H  0.54674130  0.61300009  0.42991993     0.13500
H64         H  0.50619100  0.59263635  0.37717416     0.13500
H65         H  0.55470530  0.93692174  0.42727690     0.13500
H66         H  0.51679645  0.91850151  0.37397151     0.13500
H67         H  0.55970007  0.77886925  0.42297767     0.26800
H68         H  0.52192853  0.76011756  0.37530181     0.26800
N69         N  0.81032757  0.22928028  0.43382598    -0.36000
N70         N  0.73068771  0.17593097  0.39222674    -0.56600
N71         N  0.77997283  0.25758128  0.34916488    -0.36000
N72         N  0.86109913  0.30934036  0.39189698    -0.56600
C73         C  0.78661983  0.18259999  0.44588490     0.27600
C74         C  0.85718216  0.25454872  0.44556605     0.27600
C75         C  0.74833363  0.21770839  0.33230685     0.27600
C76         C  0.81937571  0.28929419  0.33197952     0.27600
C77         C  0.70854423  0.14759864  0.41639681     0.36200
C78         C  0.69383116  0.16174111  0.37193846     0.36200
C79         C  0.88992871  0.33224696  0.41574426     0.36200
C80         C  0.87531719  0.34537734  0.37109475     0.36200
C81         C  0.81868645  0.17812880  0.46565111    -0.21300
C82         C  0.86337591  0.22366806  0.46543253    -0.21300
C83         C  0.76776043  0.22403516  0.30423726    -0.21300
C84         C  0.81277208  0.26940621  0.30401977    -0.21300
C85         C  0.65726039  0.11604040  0.41174670    -0.22300
C86         C  0.64807781  0.12471105  0.38351213    -0.22300
C87         C  0.92170677  0.38329880  0.41039498    -0.22300
C88         C  0.91283962  0.39142582  0.38199402    -0.22300
C89         C  0.73545067  0.14573980  0.44106832    -0.17700
C90         C  0.89249284  0.30614620  0.44060445    -0.17700
C91         C  0.86127512  0.33527227  0.34123679    -0.17700
C92         C  0.70279713  0.17567368  0.34196845    -0.17700
H93         H  0.81046211  0.14575629  0.47917219     0.15200
H94         H  0.89631134  0.23327239  0.47877628     0.15200
H95         H  0.75253720  0.19715915  0.28644906     0.15200
H96         H  0.83920998  0.28461422  0.28599608     0.15200
H97         H  0.62987868  0.08793503  0.42655861     0.13500
H98         H  0.61244831  0.10378600  0.37221158     0.13500
H99         H  0.95045469  0.41107669  0.42473635     0.13500
H100        H  0.93426744  0.42633344  0.37000561     0.13500
H101        H  0.79327979  0.24516862  0.42135241     0.26800
H102        H  0.77341705  0.26423785  0.37070775     0.26800
N103        N  0.81047393  0.22792027  0.09771675    -0.36000
N104        N  0.72940756  0.17634361  0.13909910    -0.56600
N105        N  0.77553986  0.26242018  0.17962392    -0.36000
N106        N  0.86007483  0.31056042  0.13822726    -0.56600
C107        C  0.78715825  0.18059837  0.08665387     0.27600
C108        C  0.85739574  0.25288000  0.08604884     0.27600
C109        C  0.74014507  0.22641899  0.19734162     0.27600
C110        C  0.81103927  0.29913661  0.19694243     0.27600
C111        C  0.70809249  0.14758387  0.11496819     0.36200
C112        C  0.69121433  0.16498333  0.15802830     0.36200
C113        C  0.88817037  0.33208700  0.11387121     0.36200
C114        C  0.87073210  0.34878251  0.15698746     0.36200
C115        C  0.81960479  0.17529149  0.06763956    -0.21300
C116        C  0.86409462  0.22113387  0.06722538    -0.21300
C117        C  0.75194928  0.24173719  0.22622316    -0.21300
C118        C  0.79660018  0.28749912  0.22598468    -0.21300
C119        C  0.65623445  0.11830811  0.11836296    -0.22300
C120        C  0.64566593  0.12939505  0.14563994    -0.22300
C121        C  0.91633763  0.38401832  0.11697537    -0.22300
C122        C  0.90527256  0.39447014  0.14426819    -0.22300
C123        C  0.73573042  0.14432755  0.09116083    -0.17700
C124        C  0.89202765  0.30487154  0.09005550    -0.17700
C125        C  0.85580483  0.34247861  0.18684931    -0.17700
C126        C  0.69771056  0.18051576  0.18774689    -0.17700
H127        H  0.81159448  0.14226996  0.05485972     0.15200
H128        H  0.89714438  0.23039846  0.05409506     0.15200
H129        H  0.73054126  0.22237691  0.24548000     0.15200
H130        H  0.81580527  0.30963620  0.24506288     0.15200
H131        H  0.62911667  0.09085176  0.10319001     0.13500
H132        H  0.60890890  0.11193755  0.15575777     0.13500
H133        H  0.94308622  0.41131824  0.10157734     0.13500
H134        H  0.92209968  0.43131462  0.15416608     0.13500
H135        H  0.79295915  0.24433886  0.10919091     0.26800
H136        H  0.77416435  0.26311290  0.15685708     0.26800
N137        N  0.70212982  0.08761299  0.01622663    -0.36000
N138        N  0.66129751  0.01119231  0.06159773    -0.56600
N139        N  0.62463318  0.93559961  0.01579220    -0.36000
N140        N  0.66167557  0.01215777  0.47030363    -0.56600
C141        C  0.70588875  0.11542885  0.04012420     0.27600
C142        C  0.70531248  0.11620842  0.49208437     0.27600
C143        C  0.59963931  0.90749303  0.03947589     0.27600
C144        C  0.60093911  0.90790360  0.49196004     0.27600
C145        C  0.69153246  0.05184591  0.07824815     0.36200
C146        C  0.64940493  0.96992396  0.07802141     0.36200
C147        C  0.69260149  0.05321146  0.45406026     0.36200
C148        C  0.65191446  0.97127638  0.45411568     0.36200
C149        C  0.71161920  0.16148654  0.03139657    -0.21300
C150        C  0.71155328  0.16160876  0.00121906    -0.21300
C151        C  0.55905253  0.86175336  0.03041080    -0.21300
C152        C  0.55975346  0.86207091  0.00023652    -0.21300
C153        C  0.69845278  0.03641984  0.10561666    -0.22300
C154        C  0.67165579  0.98434003  0.10547670    -0.22300
C155        C  0.70213128  0.03839387  0.42722258    -0.22300
C156        C  0.67625748  0.98631544  0.42725854    -0.22300
C157        C  0.70999329  0.10243515  0.06936432    -0.17700
C158        C  0.70973461  0.10360667  0.46283432    -0.17700
C159        C  0.61862840  0.92080865  0.46284325    -0.17700
C160        C  0.61624528  0.91972965  0.06882120    -0.17700
H161        H  0.71682442  0.19237255  0.04534043     0.15200
H162        H  0.71715421  0.19358243  0.48715754     0.15200
H163        H  0.53268272  0.83074507  0.04414166     0.15200
H164        H  0.53473014  0.83081892  0.48662673     0.15200
H165        H  0.72005813  0.06012365  0.12383836     0.13500
H166        H  0.66855720  0.95997738  0.12356121     0.13500
H167        H  0.72505827  0.06251282  0.40945529     0.13500
H168        H  0.67519356  0.96231932  0.40951532     0.13500
H169        H  0.70470048  0.05495031  0.01623055     0.26800
H170        H  0.66017901  0.96806488  0.01606736     0.26800
N171        N  0.80826946  0.57818474  0.43547269    -0.36000
N172        N  0.72726561  0.54837875  0.39375643    -0.56600
N173        N  0.77332577  0.50875353  0.35322221    -0.36000
N174        N  0.85744595  0.54478058  0.39513434    -0.56600
C175        C  0.78463197  0.60176049  0.44655752     0.27600
C176        C  0.85519119  0.60058251  0.44718939     0.27600
C177        C  0.73862686  0.51041713  0.33535460     0.27600
C178        C  0.80940347  0.50849070  0.33602419     0.27600
C179        C  0.70579176  0.55554833  0.41787218     0.36200
C180        C  0.68926642  0.52210463  0.37455604     0.36200
C181        C  0.88671923  0.55297214  0.41915873     0.36200
C182        C  0.86906580  0.51834369  0.37610049     0.36200
C183        C  0.81676782  0.63950745  0.46575279    -0.21300
C184        C  0.86144492  0.63873280  0.46617212    -0.21300
C185        C  0.75143277  0.50846225  0.30649459    -0.21300
C186        C  0.79596235  0.50729132  0.30689769    -0.21300
C187        C  0.65399831  0.53313619  0.41423187    -0.22300
C188        C  0.64365732  0.51199552  0.38679740    -0.22300
C189        C  0.91642726  0.53107499  0.41565571    -0.22300
C190        C  0.90519881  0.50921421  0.38844227    -0.22300
C191        C  0.73324294  0.58641861  0.44178726    -0.17700
C192        C  0.89062165  0.58443796  0.44281033    -0.17700
C193        C  0.85419216  0.51002098  0.34618680    -0.17700
C194        C  0.69616068  0.51393368  0.34475757    -0.17700
H195        H  0.80850857  0.66427591  0.47856649     0.15200
H196        H  0.89439529  0.66285638  0.47933169     0.15200
H197        H  0.73095383  0.50789698  0.28713310     0.15200
H198        H  0.81602151  0.50583985  0.28784336     0.15200
H199        H  0.62680189  0.53339562  0.42932369     0.13500
H200        H  0.60704729  0.49295589  0.37647311     0.13500
H201        H  0.94457733  0.53236523  0.43061615     0.13500
H202        H  0.92345330  0.49092348  0.37822637     0.13500
H203        H  0.79099698  0.54441946  0.42377209     0.26800
H204        H  0.77131710  0.50568036  0.37596078     0.26800
N205        N  0.80958499  0.57946820  0.09779336    -0.36000
N206        N  0.86114265  0.55138277  0.14009656    -0.56600
N207        N  0.77994807  0.52144164  0.18275256    -0.36000
N208        N  0.73058443  0.55373311  0.13971462    -0.56600
C209        C  0.85628366  0.60122269  0.08588250     0.27600
C210        C  0.78546443  0.60175411  0.08550468     0.27600
C211        C  0.81905315  0.52854746  0.19996535     0.27600
C212        C  0.74852005  0.52974167  0.19967888     0.27600
C213        C  0.89010658  0.55779259  0.11624828     0.36200
C214        C  0.87543704  0.52949988  0.16081939     0.36200
C215        C  0.70801653  0.55918257  0.11553936     0.36200
C216        C  0.69394142  0.53105268  0.16012672     0.36200
C217        C  0.86188622  0.63759190  0.06560863    -0.21300
C218        C  0.81704642  0.63791820  0.06537396    -0.21300
C219        C  0.81243868  0.54147429  0.22801736    -0.21300
C220        C  0.76776747  0.54228564  0.22781522    -0.21300
C221        C  0.92223598  0.53905113  0.12156828    -0.22300
C222        C  0.91329481  0.52164838  0.14988729    -0.22300
C223        C  0.65676390  0.53913609  0.12036312    -0.22300
C224        C  0.64795418  0.52160218  0.14865669    -0.22300
C225        C  0.89226429  0.58612567  0.09128996    -0.17700
C226        C  0.73440567  0.58730544  0.09056902    -0.17700
C227        C  0.70316935  0.52647797  0.19007261    -0.17700
C228        C  0.86081734  0.52447421  0.19065309    -0.17700
H229        H  0.89460007  0.66096015  0.05209086     0.15200
H230        H  0.80845640  0.66157232  0.05166838     0.15200
H231        H  0.83867932  0.55219765  0.24611102     0.15200
H232        H  0.75261337  0.55376835  0.24568700     0.15200
H233        H  0.95103124  0.54034878  0.10718251     0.13500
H234        H  0.93468862  0.50805102  0.16174450     0.13500
H235        H  0.62908710  0.53916806  0.10554608     0.13500
H236        H  0.61231011  0.50624187  0.15999892     0.13500
H237        H  0.79299694  0.54696992  0.11069895     0.26800
H238        H  0.77342615  0.50852977  0.16114388     0.26800
N239        N  0.24198625  0.79781236  0.09840320    -0.36000
N240        N  0.32295045  0.84792173  0.13956295    -0.56600
N241        N  0.27148814  0.76745670  0.18292450    -0.36000
N242        N  0.18863486  0.71906212  0.14082675    -0.56600
C243        C  0.26711457  0.84448756  0.08644512     0.27600
C244        C  0.19511108  0.77407830  0.08668671     0.27600
C245        C  0.30428476  0.80686381  0.19964181     0.27600
C246        C  0.23194408  0.73689684  0.20031790     0.27600
C247        C  0.34540064  0.87663423  0.11558675     0.36200
C248        C  0.35964559  0.86145701  0.15986612     0.36200
C249        C  0.16016328  0.69657243  0.11675311     0.36200
C250        C  0.17428203  0.68253450  0.16139434     0.36200
C251        C  0.23584236  0.85059205  0.06682148    -0.21300
C252        C  0.19022998  0.80594551  0.06694867    -0.21300
C253        C  0.28540472  0.80141969  0.22780580    -0.21300
C254        C  0.23956319  0.75699292  0.22825118    -0.21300
C255        C  0.39675188  0.90768381  0.12036092    -0.22300
C256        C  0.40560527  0.89837452  0.14850675    -0.22300
C257        C  0.12828728  0.64547020  0.12182341    -0.22300
C258        C  0.13690178  0.63674291  0.15016653    -0.22300
C259        C  0.31878231  0.87973937  0.09115160    -0.17700
C260        C  0.15858954  0.72294687  0.09168548    -0.17700
C261        C  0.18909384  0.69175351  0.19122641    -0.17700
C262        C  0.35037462  0.84778605  0.18980762    -0.17700
H263        H  0.24521462  0.88339371  0.05340939     0.15200
H264        H  0.15755698  0.79758747  0.05366541     0.15200
H265        H  0.30159585  0.82839479  0.24548565     0.15200
H266        H  0.21323178  0.74270986  0.24634714     0.15200
H267        H  0.42433939  0.93616557  0.10580133     0.13500
H268        H  0.44099332  0.91914999  0.16007820     0.13500
H269        H  0.10014491  0.61784107  0.10715254     0.13500
H270        H  0.11615505  0.60126125  0.16163629     0.13500
H271        H  0.25794079  0.78069527  0.11075361     0.26800
H272        H  0.27723672  0.76021191  0.16134081     0.26800
N273        N  0.24022987  0.79911262  0.43445172    -0.36000
N274        N  0.18964987  0.71644325  0.39408755    -0.56600
N275        N  0.27496185  0.76292031  0.35318027    -0.36000
N276        N  0.32253624  0.84857271  0.39378652    -0.56600
C277        C  0.19303257  0.77531533  0.44573238     0.27600
C278        C  0.26461325  0.84625557  0.44570650     0.27600
C279        C  0.23887307  0.72678373  0.33581716     0.27600
C280        C  0.31073039  0.79865655  0.33549329     0.27600
C281        C  0.16195118  0.69548327  0.41861452     0.36200
C282        C  0.17940768  0.67778461  0.37579456     0.36200
C283        C  0.34398214  0.87733396  0.41790114     0.36200
C284        C  0.36061472  0.85980846  0.37478674     0.36200
C285        C  0.18710832  0.80777756  0.46439063    -0.21300
C286        C  0.23252725  0.85276740  0.46438939    -0.21300
C287        C  0.25315484  0.73858596  0.30678447    -0.21300
C288        C  0.29839666  0.78378419  0.30659143    -0.21300
C289        C  0.13454314  0.64338772  0.41613630    -0.22300
C290        C  0.14568448  0.63228406  0.38899247    -0.22300
C291        C  0.39583269  0.90651884  0.41442891    -0.22300
C292        C  0.40622647  0.89556841  0.38707984    -0.22300
C293        C  0.15780463  0.72344996  0.44191070    -0.17700
C294        C  0.31652250  0.88111151  0.44164119    -0.17700
C295        C  0.35393544  0.84397541  0.34508837    -0.17700
C296        C  0.19388535  0.68364366  0.34590814    -0.17700
H297        H  0.15408353  0.79939948  0.47731152     0.15200
H298        H  0.24138281  0.88593744  0.47726426     0.15200
H299        H  0.23347826  0.71683919  0.28769863     0.15200
H300        H  0.31985587  0.80308283  0.28735255     0.15200
H301        H  0.10827442  0.61640880  0.43184198     0.13500
H302        H  0.12955351  0.59514239  0.37952884     0.13500
H303        H  0.42303415  0.93411823  0.42951092     0.13500
H304        H  0.44288028  0.91354765  0.37680255     0.13500
H305        H  0.25715586  0.78180775  0.42327814     0.26800
H306        H  0.27647907  0.76186129  0.37593944     0.26800
N307        N  0.46000396  0.22903000  0.09768549    -0.36000
N308        N  0.48746507  0.30889787  0.13887932    -0.56600
N309        N  0.52021766  0.26025739  0.18266955    -0.36000
N310        N  0.48743913  0.17774567  0.14061366    -0.56600
C311        C  0.43717902  0.25276961  0.08555359     0.27600
C312        C  0.43779652  0.18200039  0.08630135     0.27600
C313        C  0.51235842  0.29261380  0.19894651     0.27600
C314        C  0.51123107  0.22083678  0.20018830     0.27600
C315        C  0.48208316  0.33101604  0.11444213     0.36200
C316        C  0.51326376  0.34643282  0.15836809     0.36200
C317        C  0.48220979  0.14940777  0.11663274     0.36200
C318        C  0.51018948  0.16435798  0.16131409     0.36200
C319        C  0.40015582  0.22054041  0.06604384    -0.21300
C320        C  0.40054390  0.17571568  0.06651187    -0.21300
C321        C  0.49796902  0.27353564  0.22701281    -0.21300
C322        C  0.49737155  0.22806449  0.22783680    -0.21300
C323        C  0.50523970  0.38278172  0.11815492    -0.22300
C324        C  0.52523844  0.39248704  0.14592743    -0.22300
C325        C  0.50263266  0.11872108  0.12184973    -0.22300
C326        C  0.51993776  0.12794553  0.15019844    -0.22300
C327        C  0.45211870  0.30406365  0.09012425    -0.17700
C328        C  0.45359341  0.14654832  0.09161489    -0.17700
C329        C  0.51441765  0.17839772  0.19123725    -0.17700
C330        C  0.51737015  0.33840487  0.18857721    -0.17700
H331        H  0.37597795  0.22872199  0.05254776     0.15200
H332        H  0.37669174  0.14258043  0.05344079     0.15200
H333        H  0.48581344  0.28920209  0.24426686     0.15200
H334        H  0.48476592  0.20161937  0.24590054     0.15200
H335        H  0.50621225  0.41036006  0.10286087     0.13500
H336        H  0.54417821  0.42890946  0.15643647     0.13500
H337        H  0.50273985  0.09080679  0.10732121     0.13500
H338        H  0.53518597  0.10797451  0.16188318     0.13500
H339        H  0.49313670  0.24593779  0.11005836     0.26800
H340        H  0.53380488  0.26623889  0.16118892     0.26800
N341        N  0.45795579  0.22873089  0.43389161    -0.36000
N342        N  0.48970862  0.17813957  0.39321011    -0.56600
N343        N  0.52366405  0.26090169  0.35081013    -0.36000
N344        N  0.48477461  0.30790549  0.39137153    -0.56600
C345        C  0.43668771  0.18232495  0.44618465     0.27600
C346        C  0.43464606  0.25229916  0.44543133     0.27600
C347        C  0.52602598  0.22578145  0.33384420     0.27600
C348        C  0.52333542  0.29591570  0.33273744     0.27600
C349        C  0.48362836  0.15051932  0.41769457     0.36200
C350        C  0.51621541  0.16666428  0.37413416     0.36200
C351        C  0.47690328  0.32974606  0.41512354     0.36200
C352        C  0.50801058  0.34482477  0.37108379     0.36200
C353        C  0.39950285  0.17631015  0.46590349    -0.21300
C354        C  0.39825809  0.22064384  0.46545533    -0.21300
C355        C  0.53019759  0.24031295  0.30473954    -0.21300
C356        C  0.52870174  0.28456824  0.30408538    -0.21300
C357        C  0.50668222  0.12182580  0.41433232    -0.22300
C358        C  0.52728527  0.13214234  0.38676251    -0.22300
C359        C  0.49562100  0.38068840  0.41007352    -0.22300
C360        C  0.51482688  0.39004538  0.38217629    -0.22300
C361        C  0.45332527  0.14734528  0.44183669    -0.17700
C362        C  0.44875281  0.30318067  0.44015256    -0.17700
C363        C  0.51806940  0.33746687  0.34161170    -0.17700
C364        C  0.52434095  0.18118767  0.34421347    -0.17700
H365        H  0.37641189  0.14379623  0.47962283     0.15200
H366        H  0.37399874  0.22896251  0.47874489     0.15200
H367        H  0.53458886  0.22160650  0.28590665     0.15200
H368        H  0.53199531  0.30624471  0.28475758     0.15200
H369        H  0.50730606  0.09520001  0.42975206     0.13500
H370        H  0.54663879  0.11488023  0.37661320     0.13500
H371        H  0.49406393  0.40791132  0.42453831     0.13500
H372        H  0.53045999  0.42579457  0.37093365     0.13500
H373        H  0.49100444  0.24580156  0.42150108     0.26800
H374        H  0.52462777  0.26221134  0.37356279     0.26800
N375        N  0.42763877  0.33813436  0.01535849    -0.36000
N376        N  0.38943085  0.37659142  0.47009392    -0.56600
N377        N  0.35014290  0.41306081  0.01587256    -0.36000
N378        N  0.39130978  0.37732129  0.06130319    -0.56600
C379        C  0.45128018  0.33394986  0.49127359     0.27600
C380        C  0.45208012  0.33405719  0.03903920     0.27600
C381        C  0.34500052  0.43607753  0.49220264     0.27600
C382        C  0.34553280  0.43634634  0.03987522     0.27600
C383        C  0.39921361  0.34563544  0.45379225     0.36200
C384        C  0.35780144  0.38599051  0.45411897     0.36200
C385        C  0.40260322  0.34726199  0.07756523     0.36200
C386        C  0.36022137  0.38683979  0.07776706     0.36200
C387        C  0.49101972  0.32745911  0.99966433    -0.21300
C388        C  0.49175443  0.32762511  0.02985728    -0.21300
C389        C  0.33856457  0.47638275  0.00111090    -0.21300
C390        C  0.33854798  0.47596950  0.03128978    -0.21300
C391        C  0.37396010  0.33555331  0.42719143    -0.22300
C392        C  0.34769379  0.36123831  0.42738876    -0.22300
C393        C  0.37915303  0.33820087  0.10469924    -0.22300
C394        C  0.35225270  0.36328881  0.10481782    -0.22300
C395        C  0.43315130  0.32915025  0.46216413    -0.17700
C396        C  0.43558900  0.32991019  0.06845762    -0.17700
C397        C  0.34136436  0.41878177  0.06903574    -0.17700
C398        C  0.34076294  0.41922516  0.46290983    -0.17700
H399        H  0.51629827  0.32151754  0.48559583     0.15200
H400        H  0.51747572  0.32192440  0.04350550     0.15200
H401        H  0.33182327  0.50074476  0.48740483     0.15200
H402        H  0.33237267  0.50090565  0.04531665     0.15200
H403        H  0.37469584  0.31248069  0.40943357     0.13500
H404        H  0.32416028  0.36187537  0.40983302     0.13500
H405        H  0.38119673  0.31590222  0.12253369     0.13500
H406        H  0.32959388  0.36421027  0.12277653     0.13500
H407        H  0.39263906  0.33609876  0.01566263     0.26800
H408        H  0.34861605  0.37831230  0.01576685     0.26800
N409        N  0.24082800  0.44460138  0.43358801    -0.36000
N410        N  0.19000349  0.47306183  0.39120838    -0.56600
N411        N  0.27181933  0.50331406  0.34882575    -0.36000
N412        N  0.32085977  0.47133631  0.39223789    -0.56600
C413        C  0.19408291  0.42327721  0.44540046     0.27600
C414        C  0.26424997  0.42148692  0.44570569     0.27600
C415        C  0.23275868  0.49580352  0.33139927     0.27600
C416        C  0.30382080  0.49548425  0.33213454     0.27600
C417        C  0.16149237  0.46772974  0.41514000     0.36200
C418        C  0.17622597  0.49518001  0.37033351     0.36200
C419        C  0.34265090  0.46487327  0.41646951     0.36200
C420        C  0.35789645  0.49398028  0.37203026     0.36200
C421        C  0.18760700  0.38617555  0.46534048    -0.21300
C422        C  0.23202615  0.38500544  0.46551196    -0.21300
C423        C  0.23991095  0.48298317  0.30345142    -0.21300
C424        C  0.28492629  0.48277623  0.30391579    -0.21300
C425        C  0.13016727  0.48733957  0.40970293    -0.22300
C426        C  0.13918871  0.50424371  0.38127519    -0.22300
C427        C  0.39393210  0.48450868  0.41194022    -0.22300
C428        C  0.40343277  0.50248336  0.38370917    -0.22300
C429        C  0.15913000  0.43979816  0.44036775    -0.17700
C430        C  0.31539932  0.43583443  0.44104592    -0.17700
C431        C  0.34929071  0.49915187  0.34202761    -0.17700
C432        C  0.19073205  0.49968452  0.34045999    -0.17700
H433        H  0.15466792  0.36302354  0.47874766     0.15200
H434        H  0.24002677  0.36079253  0.47909358     0.15200
H435        H  0.21382737  0.47195122  0.28526556     0.15200
H436        H  0.30055970  0.47158930  0.28614430     0.15200
H437        H  0.10195100  0.48713575  0.42413152     0.13500
H438        H  0.11867535  0.51881350  0.36950889     0.13500
H439        H  0.42106832  0.48354027  0.42680572     0.13500
H440        H  0.43905113  0.51701411  0.37240348     0.13500
H441        H  0.25799178  0.47753487  0.42105653     0.26800
H442        H  0.27795615  0.51623368  0.37043129     0.26800
N443        N  0.24033084  0.44304572  0.09755721    -0.36000
N444        N  0.32108305  0.47255439  0.13900007    -0.56600
N445        N  0.27473527  0.51288386  0.17951271    -0.36000
N446        N  0.19046843  0.47634651  0.13813073    -0.56600
C447        C  0.26377360  0.41941060  0.08618582     0.27600
C448        C  0.19361027  0.42152208  0.08563704     0.27600
C449        C  0.31042275  0.51286048  0.19718964     0.27600
C450        C  0.23930334  0.51420987  0.19683157     0.27600
C451        C  0.34249969  0.46502293  0.11493892     0.36200
C452        C  0.35927695  0.50008564  0.15785308     0.36200
C453        C  0.16279380  0.46995333  0.11363484     0.36200
C454        C  0.17974564  0.50391761  0.15684136     0.36200
C455        C  0.23160686  0.38239855  0.06664959    -0.21300
C456        C  0.18719960  0.38376677  0.06628153    -0.21300
C457        C  0.29887906  0.51687149  0.22605342    -0.21300
C458        C  0.25412590  0.51770687  0.22583051    -0.21300
C459        C  0.39436206  0.48807892  0.11834662    -0.22300
C460        C  0.40486475  0.51020165  0.14549677    -0.22300
C461        C  0.13489935  0.49396806  0.11659644    -0.22300
C462        C  0.14575220  0.51548850  0.14393253    -0.22300
C463        C  0.31510777  0.43428272  0.09095383    -0.17700
C464        C  0.15898508  0.43881196  0.08981282    -0.17700
C465        C  0.19432402  0.51237085  0.18675923    -0.17700
C466        C  0.35292382  0.50957549  0.18755800    -0.17700
H467        H  0.23974760  0.35788043  0.05350281     0.15200
H468        H  0.15442336  0.36049416  0.05279494     0.15200
H469        H  0.32057556  0.51953780  0.24528511     0.15200
H470        H  0.23517935  0.52112330  0.24486561     0.15200
H471        H  0.42158127  0.48798349  0.10320452     0.13500
H472        H  0.44165489  0.52994541  0.15557038     0.13500
H473        H  0.10853842  0.49477942  0.10103874     0.13500
H474        H  0.12939039  0.53604746  0.15367483     0.13500
H475        H  0.25762288  0.47656407  0.10948154     0.26800
H476        H  0.27595835  0.51449204  0.15673868     0.26800
N477        N  0.02589341  0.38342266  0.46982200    -0.36000
N478        N  0.10228163  0.42130606  0.01508082    -0.56600
N479        N  0.02547369  0.38252715  0.06067080    -0.36000
N480        N  0.94915317  0.34393031  0.01540749    -0.56600
C481        C  0.06710625  0.39206921  0.45421326     0.27600
C482        C  0.98463663  0.35056794  0.45428516     0.27600
C483        C  0.06682786  0.39094644  0.07610516     0.27600
C484        C  0.98421736  0.34948305  0.07623179     0.27600
C485        C  0.13172552  0.44344588  0.49141203     0.36200
C486        C  0.13155628  0.44303245  0.03887705     0.36200
C487        C  0.92006318  0.33710604  0.49153423     0.36200
C488        C  0.91964072  0.33638001  0.03906994     0.36200
C489        C  0.05191284  0.36486055  0.42823849    -0.21300
C490        C  0.99975612  0.33864305  0.42827348    -0.21300
C491        C  0.05170595  0.36363922  0.10208776    -0.21300
C492        C  0.99948441  0.33743220  0.10216536    -0.21300
C493        C  0.17944972  0.48132701  0.00021481    -0.22300
C494        C  0.17945812  0.48054431  0.03032787    -0.22300
C495        C  0.87242167  0.32739886  0.00026515    -0.22300
C496        C  0.87198059  0.32630115  0.03037338    -0.22300
C497        C  0.11785618  0.42590944  0.46236007    -0.17700
C498        C  0.93390064  0.33338605  0.46252095    -0.17700
C499        C  0.93334794  0.33189392  0.06799515    -0.17700
C500        C  0.11767339  0.42449153  0.06777598    -0.17700
H501        H  0.07586397  0.36417370  0.41098191     0.15200
H502        H  0.97575002  0.31387348  0.41104257     0.15200
H503        H  0.07577363  0.36273867  0.11922336     0.15200
H504        H  0.97552133  0.31242027  0.11934938     0.15200
H505        H  0.21176189  0.50420880  0.48630634     0.13500
H506        H  0.21164188  0.50346802  0.04429684     0.13500
H507        H  0.83994619  0.31726995  0.48637369     0.13500
H508        H  0.83974938  0.31720994  0.04423044     0.13500
H509        H  0.02589402  0.40285432  0.48855171     0.26800
H510        H  0.02547242  0.40210322  0.04197999     0.26800
N511        N  0.35371278  0.93734135  0.01659668    -0.36000
N512        N  0.39315010  0.01393871  0.47107467    -0.56600
N513        N  0.43113661  0.08951712  0.01685878    -0.36000
N514        N  0.39513036  0.01320743  0.06244012    -0.56600
C515        C  0.34741644  0.90923655  0.49259915     0.27600
C516        C  0.34965432  0.90906133  0.04033902     0.27600
C517        C  0.45500553  0.11836682  0.49284375     0.27600
C518        C  0.45536508  0.11762911  0.04068590     0.27600
C519        C  0.36163378  0.97326933  0.45477730     0.36200
C520        C  0.40420272  0.05513660  0.45477435     0.36200
C521        C  0.36354677  0.97222875  0.07852380     0.36200
C522        C  0.40549540  0.05409093  0.07879569     0.36200
C523        C  0.34192023  0.86267177  0.00122510    -0.21300
C524        C  0.34258476  0.86259782  0.03140031    -0.21300
C525        C  0.49395735  0.16458025  0.00160809    -0.21300
C526        C  0.49470420  0.16434386  0.03178499    -0.21300
C527        C  0.35319351  0.98859580  0.42778444    -0.22300
C528        C  0.38020838  0.04060482  0.42778455    -0.22300
C529        C  0.35435727  0.98704271  0.10545626    -0.22300
C530        C  0.38102489  0.03906828  0.10563463    -0.22300
C531        C  0.34294236  0.92260989  0.46353694    -0.17700
C532        C  0.34542940  0.92179033  0.06955861    -0.17700
C533        C  0.43849438  0.10458437  0.06998720    -0.17700
C534        C  0.43764621  0.10548157  0.46362538    -0.17700
H535        H  0.33336668  0.83115217  0.48714790     0.15200
H536        H  0.33658256  0.83122371  0.04520542     0.15200
H537        H  0.51966707  0.19645232  0.48781441     0.15200
H538        H  0.52007936  0.19568015  0.04562625     0.15200
H539        H  0.33019489  0.96483121  0.40994159     0.13500
H540        H  0.38206639  0.06486714  0.40994709     0.13500
H541        H  0.33101076  0.96294515  0.12311562     0.13500
H542        H  0.38219314  0.06300333  0.12344140     0.13500
H543        H  0.35183579  0.97036657  0.01682913     0.26800
H544        H  0.39626381  0.05628284  0.01701361     0.26800
N545        N  0.10123937  0.68810619  0.01681092    -0.36000
N546        N  0.02486792  0.64688044  0.47156850    -0.56600
N547        N  0.94916249  0.60815102  0.01677333    -0.36000
N548        N  0.02569015  0.64675142  0.06234097    -0.56600
C549        C  0.12980434  0.69372246  0.49306173     0.27600
C550        C  0.12961038  0.69241961  0.04059407     0.27600
C551        C  0.92108264  0.58354114  0.49345914     0.27600
C552        C  0.92167406  0.58375956  0.04072542     0.27600
C553        C  0.06545126  0.67809455  0.45507884     0.36200
C554        C  0.98343272  0.63484456  0.45520165     0.36200
C555        C  0.06631625  0.67889047  0.07844972     0.36200
C556        C  0.98450913  0.63618019  0.07844563     0.36200
C557        C  0.17562343  0.69895293  0.00150280    -0.21300
C558        C  0.17589136  0.69891345  0.03168853    -0.21300
C559        C  0.87488583  0.54345349  0.00196526    -0.21300
C560        C  0.87552358  0.54318277  0.03213631    -0.21300
C561        C  0.04982224  0.68536473  0.42786974    -0.22300
C562        C  0.99772556  0.65791710  0.42795495    -0.22300
C563        C  0.05100103  0.68843149  0.10510808    -0.22300
C564        C  0.99896166  0.66126737  0.10510643    -0.22300
C565        C  0.11627361  0.69745666  0.46389584    -0.17700
C566        C  0.11683341  0.69677886  0.06980779    -0.17700
C567        C  0.93435156  0.60179704  0.06977424    -0.17700
C568        C  0.93317835  0.60113139  0.46427043    -0.17700
H569        H  0.20805079  0.70801160  0.48769509     0.15200
H570        H  0.20720322  0.70475200  0.04550336     0.15200
H571        H  0.84430191  0.51667187  0.48861270     0.15200
H572        H  0.84469229  0.51742663  0.04617884     0.15200
H573        H  0.07344101  0.70780800  0.40981516     0.13500
H574        H  0.97325518  0.65502849  0.40998353     0.13500
H575        H  0.07476841  0.71215086  0.12274255     0.13500
H576        H  0.97463490  0.65989711  0.12275177     0.13500
H577        H  0.06821761  0.69006189  0.01687328     0.26800
H578        H  0.98158034  0.64370864  0.01674031     0.26800
N579        N  0.69880643  0.60931532  0.01586269    -0.36000
N580        N  0.65940330  0.64586431  0.47092376    -0.56600
N581        N  0.62365946  0.68602983  0.01606508    -0.36000
N582        N  0.65969157  0.64587355  0.06157302    -0.56600
C583        C  0.70317088  0.58562647  0.49267800     0.27600
C584        C  0.70302277  0.58541622  0.03972719     0.27600
C585        C  0.59929173  0.68991719  0.49276871     0.27600
C586        C  0.59972942  0.69016481  0.03994141     0.27600
C587        C  0.68939120  0.63501119  0.45440438     0.36200
C588        C  0.64852716  0.67593241  0.45446723     0.36200
C589        C  0.69115004  0.63635144  0.07762521     0.36200
C590        C  0.64979064  0.67674307  0.07788414     0.36200
C591        C  0.70813724  0.54481721  0.00080986    -0.21300
C592        C  0.70861760  0.54507033  0.03098105    -0.21300
C593        C  0.56042341  0.69751152  0.00096710    -0.21300
C594        C  0.56017582  0.69709482  0.03113024    -0.21300
C595        C  0.69708218  0.65769766  0.42708910    -0.22300
C596        C  0.67111007  0.68369413  0.42712782    -0.22300
C597        C  0.70092784  0.66087391  0.10442754    -0.22300
C598        C  0.67454257  0.68643432  0.10461680    -0.22300
C599        C  0.70733571  0.60256577  0.46340816    -0.17700
C600        C  0.70825436  0.60315379  0.06884874    -0.17700
C601        C  0.61663623  0.69399654  0.06922434    -0.17700
C602        C  0.61609338  0.69385457  0.46349125    -0.17700
H603        H  0.71449610  0.51985184  0.48768785     0.15200
H604        H  0.71426806  0.51960514  0.04488760     0.15200
H605        H  0.53428583  0.70256891  0.48777723     0.15200
H606        H  0.53483517  0.70293095  0.04500899     0.15200
H607        H  0.71880494  0.65550468  0.40899618     0.13500
H608        H  0.66885893  0.70549026  0.40906876     0.13500
H609        H  0.72429578  0.66015333  0.12205455     0.13500
H610        H  0.67361631  0.70939679  0.12238011     0.13500
H611        H  0.70156389  0.64463031  0.01583884     0.26800
H612        H  0.65849535  0.68770088  0.01607683     0.26800
O613        O  0.56779007  0.63874567  0.20713477    -0.74700
O614        O  0.50045066  0.63371041  0.23185117    -0.53600
C615        C  0.53428344  0.65165038  0.21137808     0.79000
O616        O  0.48754629  0.39192254  0.20362746    -0.59300
O617        O  0.55161568  0.39352137  0.23042495    -0.52300
C618        C  0.51886792  0.37660735  0.20936037     0.71100
O619        O  0.40462531  0.47763131  0.20363676    -0.73800
O620        O  0.40781713  0.54253885  0.22995241    -0.54400
C621        C  0.39049102  0.51007402  0.20884851     0.77100
O622        O  0.65348307  0.55896918  0.20767009    -0.59000
O623        O  0.64791047  0.49061837  0.23158890    -0.52100
C624        C  0.66642385  0.52543768  0.21169143     0.73700
Zr625      Zr  0.59470235  0.58273499  0.22678684     2.54700
O626        O  0.61695491  0.60362505  0.17536763    -0.79500
O627        O  0.67027146  0.66064284  0.24129713    -0.93000
Zr628      Zr  0.46499757  0.45330797  0.22005975     2.64700
O629        O  0.47154563  0.46403890  0.16701306    -0.97900
O630        O  0.38566914  0.37325065  0.21745535    -0.80000
O631        O  0.50543508  0.54238982  0.22288448    -0.83300
O632        O  0.55421477  0.49350132  0.22260588    -2.18000
O633        O  0.64515538  0.54714903  0.32856120    -0.66700
O634        O  0.64280817  0.48307019  0.30168165    -0.51300
C635        C  0.65943334  0.51475701  0.32320882     0.72000
O636        O  0.40001087  0.46766236  0.32450625    -0.56900
O637        O  0.40404572  0.53501845  0.30026966    -0.51600
C638        C  0.38651252  0.50076417  0.32049359     0.73800
O639        O  0.48258497  0.38420387  0.32271734    -0.71000
O640        O  0.55326289  0.39353797  0.29997068    -0.49700
C641        C  0.51790957  0.37339731  0.31945496     0.75200
O642        O  0.55820004  0.63008431  0.32918908    -0.66400
O643        O  0.49377996  0.62771006  0.30260451    -0.53600
C644        C  0.52561989  0.64415152  0.32403692     0.73600
Zr645      Zr  0.58625895  0.57340719  0.31093985     2.77500
O646        O  0.58517181  0.57663876  0.36427267    -0.97100
O647        O  0.66577382  0.65328324  0.30815538    -0.77900
Zr648      Zr  0.45666305  0.44220171  0.30419895     2.70100
O649        O  0.43415073  0.41892545  0.35532455    -0.79200
O650        O  0.38027962  0.36554195  0.28894292    -0.98300
Zr651      Zr  0.47483086  0.56242762  0.26591882     2.21500
Zr652      Zr  0.57621232  0.46316685  0.26534496     2.11100
O653        O  0.54589282  0.48421322  0.30834209    -2.47000
O654        O  0.49678588  0.53146684  0.30824750    -0.79000
O655        O  0.61809796  0.55366503  0.26869543    -0.71200
O656        O  0.43327460  0.47196725  0.26257619    -2.32100
O657        O  0.56546323  0.60497605  0.26899842    -2.28300
O658        O  0.48574267  0.42083393  0.26176631    -0.72900
H659        H  0.56549527  0.48447408  0.20506683     0.79100
H660        H  0.39693230  0.45701341  0.26162208     0.80200
H661        H  0.55485366  0.47289441  0.32588750     0.82400
H662        H  0.57992707  0.64121765  0.27014056     0.80000
H663        H  0.37782793  0.36799527  0.19623382     0.43000
H664        H  0.38381680  0.33762108  0.29739166     0.42000
H665        H  0.46106473  0.44751659  0.36654635     0.41700
H666        H  0.56606579  0.54088089  0.37066310     0.39600
H667        H  0.66469381  0.67310780  0.32501124     0.42700
H668        H  0.67389512  0.68562334  0.22624565     0.37500
H669        H  0.58873104  0.57577284  0.16442391     0.43600
H670        H  0.50821226  0.48129699  0.16266999     0.40100
H671        H  0.62049758  0.58923877  0.37063257     0.45000
H672        H  0.69851795  0.65438504  0.23733409     0.43700
H673        H  0.45735631  0.42955654  0.15885575     0.43800
H674        H  0.35283353  0.36547610  0.30051115     0.44200
O675        O  0.40055819  0.92999884  0.20722153    -0.74700
O676        O  0.40469645  0.86686462  0.23161191    -0.53600
C677        C  0.38726434  0.88344457  0.21133111     0.79000
O678        O  0.64644010  0.09663415  0.20402490    -0.59300
O679        O  0.64329180  0.15858010  0.23016523    -0.52300
C680        C  0.66050329  0.14331607  0.20911047     0.71100
O681        O  0.56134037  0.92790797  0.20335298    -0.73800
O682        O  0.49725433  0.86554848  0.23021302    -0.54400
C683        C  0.52931023  0.88125460  0.20877372     0.77100
O684        O  0.48019902  0.09594439  0.20910059    -0.59000
O685        O  0.55000484  0.15769005  0.23264220    -0.52100
C686        C  0.51460708  0.14226114  0.21308330     0.73700
Zr687      Zr  0.45738935  0.01266497  0.22680821     2.54700
O688        O  0.44235573  0.01467812  0.17449711    -0.79500
O689        O  0.37860484  0.01008281  0.23915795    -0.93000
Zr690      Zr  0.58690227  0.01173356  0.22133755     2.64700
O691        O  0.58441469  0.00611604  0.16802755    -0.97900
O692        O  0.66708315  0.01294170  0.22368695    -0.80000
O693        O  0.49739460  0.96360032  0.22350723    -0.83300
O694        O  0.54670696  0.06062845  0.22321533    -2.18000
O695        O  0.49183004  0.09711507  0.32856494    -0.66700
O696        O  0.55703361  0.15889114  0.30217275    -0.51300
C697        C  0.52459676  0.14376215  0.32328137     0.72000
O698        O  0.56383233  0.92651211  0.32593848    -0.59600
O699        O  0.49650088  0.86435972  0.30117362    -0.51600
C700        C  0.52976452  0.87992690  0.32189042     0.73800
O701        O  0.65229821  0.09324451  0.32461205    -0.71000
O702        O  0.64806110  0.15628979  0.30013544    -0.49700
C703        C  0.66588681  0.13988143  0.32035338     0.75200
O704        O  0.40611614  0.92750244  0.32876839    -0.66400
O705        O  0.40780891  0.86511264  0.30230994    -0.53600
C706        C  0.39143160  0.88074895  0.32363840     0.73600
Zr707      Zr  0.46456386  0.01195838  0.31104662     2.77500
O708        O  0.45945597  0.00809218  0.36440991    -0.97100
O709        O  0.38570323  0.01322999  0.30764099    -0.77900
Zr710      Zr  0.59385439  0.01030676  0.30550781     2.70100
O711        O  0.61930271  0.01074381  0.35616524    -0.79200
O712        O  0.66922484  0.00871040  0.28996852    -0.98300
Zr713      Zr  0.47479842  0.91118222  0.26607124     2.21500
Zr714      Zr  0.57647924  0.11195339  0.26625434     2.11100
O715        O  0.55386241  0.05956718  0.30914744    -2.47000
O716        O  0.50459002  0.96272133  0.30894580    -0.79000
O717        O  0.48596976  0.06425900  0.26902231    -0.71200
O718        O  0.56536276  0.95902102  0.26328796    -2.32100
O719        O  0.43350763  0.96034297  0.26879968    -2.28300
O720        O  0.61803469  0.06312026  0.26361530    -0.72900
H721        H  0.55576725  0.08120614  0.20574621     0.79100
H722        H  0.57962267  0.93710111  0.26234348     0.80200
H723        H  0.56514675  0.07970561  0.32674985     0.82400
H724        H  0.39714979  0.93887913  0.26966041     0.80000
H725        H  0.68029145  0.02063516  0.20337465     0.43000
H726        H  0.69532983  0.02993209  0.30456301     0.42000
H727        H  0.59210770  0.01067668  0.36799619     0.41700
H728        H  0.49499274  0.02492295  0.37123644     0.39600
H729        H  0.39619165  0.04880095  0.30294502     0.42700
H730        H  0.35809868  0.99812379  0.22101512     0.37500
H731        H  0.47083067  0.01349553  0.16493238     0.43600
H732        H  0.56547097  0.02285257  0.16162905     0.40100
H733        H  0.44671603  0.03084901  0.37028177     0.45000
H734        H  0.38793365  0.04603363  0.24082654     0.43700
H735        H  0.61964427  0.02852723  0.16136958     0.43800
H736        H  0.66162855  0.97381874  0.29422410     0.44200
O737        O  0.94347202  0.38482596  0.32312820    -0.74700
O738        O  0.88017945  0.38973002  0.29944910    -0.53600
C739        C  0.89682404  0.37171712  0.31936433     0.79000
O740        O  0.10945278  0.62972375  0.33082415    -0.59300
O741        O  0.17171128  0.62972587  0.30315349    -0.52300
C742        C  0.15634995  0.64547143  0.32494679     0.71100
O743        O  0.93859268  0.54248961  0.33062334    -0.73800
O744        O  0.87678382  0.47911260  0.30328213    -0.54400
C745        C  0.89183807  0.51030719  0.32501994     0.77100
O746        O  0.10879595  0.46575124  0.32184141    -0.59000
O747        O  0.17110724  0.53640152  0.29922807    -0.52100
C748        C  0.15517131  0.50047632  0.31846503     0.73700
Zr749      Zr  0.02586900  0.44143977  0.30271218     2.54700
O750        O  0.02819167  0.41404115  0.35260135    -0.79500
O751        O  0.02460387  0.36622060  0.28407959    -0.93000
Zr752      Zr  0.02420936  0.56966441  0.31379035     2.64700
O753        O  0.02035545  0.55784253  0.36675091    -0.97900
O754        O  0.02513241  0.64946964  0.31832591    -0.80000
O755        O  0.97636045  0.48059210  0.30889653    -0.83300
O756        O  0.07355244  0.53037036  0.30885629    -2.18000
O757        O  0.10984763  0.48114234  0.20197877    -0.66700
O758        O  0.17189021  0.54461716  0.22928347    -0.51300
C759        C  0.15671127  0.51290565  0.20773279     0.72000
O760        O  0.94277589  0.55755166  0.20889052    -0.59600
O761        O  0.87971797  0.48920800  0.23271330    -0.51600
C762        C  0.89624864  0.52364452  0.21259967     0.73800
O763        O  0.10727877  0.64322587  0.20995186    -0.71000
O764        O  0.17024215  0.63661671  0.23287702    -0.49700
C765        C  0.15378305  0.65551665  0.21330732     0.75200
O766        O  0.93988881  0.39596868  0.20214487    -0.66400
O767        O  0.87777257  0.39664020  0.22950766    -0.53600
C768        C  0.89308766  0.38058763  0.20786727     0.73600
Zr769      Zr  0.02472673  0.45659846  0.21875174     2.77500
O770        O  0.02012239  0.46967926  0.16636764    -0.97100
O771        O  0.02473851  0.37752458  0.21278451    -0.77900
Zr772      Zr  0.02482984  0.58541156  0.23006514     2.70100
O773        O  0.02550978  0.61889753  0.18142003    -0.79200
O774        O  0.02238881  0.65767589  0.25047027    -0.98300
Zr775      Zr  0.92438917  0.46218055  0.26633140     2.21500
Zr776      Zr  0.12567013  0.56402651  0.26624847     2.11100
O777        O  0.07338512  0.54523608  0.22374062    -2.47000
O778        O  0.97595522  0.49652306  0.22380653    -0.79000
O779        O  0.07720347  0.47394222  0.26058783    -0.71200
O780        O  0.97242270  0.55246076  0.27176901    -2.32100
O781        O  0.97358655  0.42145606  0.26093935    -2.28300
O782        O  0.07671110  0.60513233  0.27196046    -0.72900
H783        H  0.09400401  0.53853968  0.32627692     0.79100
H784        H  0.95051154  0.56663120  0.27354140     0.80200
H785        H  0.09366579  0.55734993  0.20625340     0.82400
H786        H  0.95215335  0.38523202  0.25917689     0.80000
H787        H  0.01619074  0.65052180  0.33908589     0.43000
H788        H  0.05747483  0.68624481  0.24839736     0.42000
H789        H  0.02496724  0.59357848  0.16766756     0.41700
H790        H  0.04098007  0.50665268  0.16333102     0.39600
H791        H  0.02698455  0.37414338  0.19132015     0.42700
H792        H  0.00512245  0.33978468  0.29890475     0.37500
H793        H  0.02670043  0.43956131  0.36525856     0.43600
H794        H  0.04053983  0.54136948  0.37077043     0.40100
H795        H  0.03906267  0.45521193  0.15679340     0.45000
H796        H  0.05986705  0.37349312  0.28638525     0.43700
H797        H  0.04021764  0.59225930  0.37510173     0.43800
H798        H  0.00257198  0.66492904  0.23607846     0.44200
N799        N  0.59356968  0.79556082  0.59789800    -0.36000
N800        N  0.56405629  0.71549594  0.63968999    -0.56600
N801        N  0.52897247  0.76409994  0.68136744    -0.36000
N802        N  0.56194780  0.84579622  0.63832130    -0.56600
C803        C  0.61669169  0.77159386  0.58667311     0.27600
C804        C  0.61645016  0.84251387  0.58624427     0.27600
C805        C  0.53801811  0.73364135  0.69882678     0.27600
C806        C  0.53614480  0.80399821  0.69783817     0.27600
C807        C  0.57139488  0.69336996  0.61595745     0.36200
C808        C  0.54063876  0.67878106  0.66001408     0.36200
C809        C  0.56900724  0.87421485  0.61410567     0.36200
C810        C  0.53589472  0.85755725  0.65752630     0.36200
C811        C  0.65467077  0.80355700  0.56751845    -0.21300
C812        C  0.65453229  0.84850156  0.56725651    -0.21300
C813        C  0.55143810  0.75453797  0.72656789    -0.21300
C814        C  0.55036739  0.79916120  0.72590543    -0.21300
C815        C  0.55165294  0.64220051  0.62091359    -0.22300
C816        C  0.53251955  0.63308195  0.64887494    -0.22300
C817        C  0.54646521  0.90337166  0.61756831    -0.22300
C818        C  0.52542193  0.89268191  0.64507085    -0.22300
C819        C  0.60106497  0.72021861  0.59147441    -0.17700
C820        C  0.60047638  0.87804949  0.59049787    -0.17700
C821        C  0.53089139  0.84478206  0.68766420    -0.17700
C822        C  0.53511005  0.68803965  0.68984843    -0.17700
H823        H  0.67925548  0.79505410  0.55467921     0.15200
H824        H  0.67894738  0.88142318  0.55414665     0.15200
H825        H  0.56383951  0.74063317  0.74466772     0.15200
H826        H  0.56190296  0.82666329  0.74332512     0.15200
H827        H  0.55327584  0.61488639  0.60655504     0.13500
H828        H  0.51759599  0.59762806  0.66043258     0.13500
H829        H  0.54706555  0.93099741  0.60245023     0.13500
H830        H  0.50742020  0.91108480  0.65549894     0.13500
H831        H  0.55977888  0.77855940  0.60964289     0.26800
H832        H  0.51571012  0.75657550  0.65981452     0.26800
N833        N  0.59411290  0.79616990  0.93396138    -0.36000
N834        N  0.56046906  0.71326268  0.89376263    -0.56600
N835        N  0.52448792  0.76129902  0.85217490    -0.36000
N836        N  0.56335784  0.84692233  0.89280503    -0.56600
C837        C  0.61708452  0.77205631  0.94531023     0.27600
C838        C  0.61758013  0.84331010  0.94524316     0.27600
C839        C  0.52364688  0.72467561  0.83498340     0.27600
C840        C  0.52574043  0.79736089  0.83425391     0.27600
C841        C  0.56868728  0.69236438  0.91780165     0.36200
C842        C  0.53350782  0.67495435  0.87493884     0.36200
C843        C  0.57229168  0.87687836  0.91654196     0.36200
C844        C  0.53978998  0.86070360  0.87288951     0.36200
C845        C  0.65560060  0.80419965  0.96410146    -0.21300
C846        C  0.65586308  0.84931873  0.96409411    -0.21300
C847        C  0.52175079  0.73644971  0.80586821    -0.21300
C848        C  0.52295198  0.78209012  0.80543067    -0.21300
C849        C  0.54622830  0.64054969  0.91453690    -0.22300
C850        C  0.52403198  0.62962455  0.88737622    -0.22300
C851        C  0.55364273  0.90922580  0.91195272    -0.22300
C852        C  0.53367918  0.89940173  0.88421645    -0.22300
C853        C  0.60068276  0.72038106  0.94118637    -0.17700
C854        C  0.60219818  0.87922460  0.94077221    -0.17700
C855        C  0.52992148  0.84374468  0.84337176    -0.17700
C856        C  0.52506931  0.68142122  0.84510815    -0.17700
H857        H  0.68015218  0.79564834  0.97697687     0.15200
H858        H  0.68074274  0.88243531  0.97690492     0.15200
H859        H  0.51966117  0.71456542  0.78686728     0.15200
H860        H  0.52184545  0.80167952  0.78607432     0.15200
H861        H  0.54741531  0.61376066  0.92959070     0.13500
H862        H  0.50532850  0.59288792  0.87723404     0.13500
H863        H  0.55633990  0.93849656  0.92644187     0.13500
H864        H  0.51872926  0.92020442  0.87306752     0.13500
H865        H  0.56002711  0.77934502  0.92252908     0.26800
H866        H  0.52194152  0.76055042  0.87492124     0.26800
N867        N  0.81121911  0.22889283  0.93398346    -0.36000
N868        N  0.73176031  0.17502988  0.89224677    -0.56600
N869        N  0.78080573  0.25661476  0.84912284    -0.36000
N870        N  0.86218808  0.30853905  0.89171948    -0.56600
C871        C  0.78745954  0.18251405  0.94638368     0.27600
C872        C  0.85775099  0.25459240  0.94605312     0.27600
C873        C  0.74919392  0.21676655  0.83226548     0.27600
C874        C  0.82000382  0.28848891  0.83189145     0.27600
C875        C  0.70967092  0.14678452  0.91647079     0.36200
C876        C  0.69486966  0.16070203  0.87193293     0.36200
C877        C  0.89079863  0.33169485  0.91560994     0.36200
C878        C  0.87603959  0.34460766  0.87094480     0.36200
C879        C  0.81918834  0.17868274  0.96671688    -0.21300
C880        C  0.86370822  0.22432183  0.96649758    -0.21300
C881        C  0.76848082  0.22320714  0.80414043    -0.21300
C882        C  0.81340596  0.26866151  0.80391130    -0.21300
C883        C  0.65842195  0.11504808  0.91178030    -0.22300
C884        C  0.64916172  0.12364165  0.88353072    -0.22300
C885        C  0.92233001  0.38276465  0.91021902    -0.22300
C886        C  0.91328525  0.39079606  0.88185088    -0.22300
C887        C  0.73648942  0.14539558  0.94136387    -0.17700
C888        C  0.89294279  0.30606255  0.94082011    -0.17700
C889        C  0.86157121  0.33467264  0.84112413    -0.17700
C890        C  0.70367404  0.17481227  0.84195160    -0.17700
H891        H  0.81084923  0.14670144  0.98062852     0.15200
H892        H  0.89635234  0.23438342  0.98021399     0.15200
H893        H  0.75312517  0.19648915  0.78627300     0.15200
H894        H  0.83972405  0.28405464  0.78584206     0.15200
H895        H  0.63105431  0.08705181  0.92664462     0.13500
H896        H  0.61342945  0.10286174  0.87228600     0.13500
H897        H  0.95070502  0.41076578  0.92463397     0.13500
H898        H  0.93412313  0.42591514  0.86996823     0.13500
H899        H  0.79435130  0.24437793  0.92102103     0.26800
H900        H  0.77426004  0.26325528  0.87067072     0.26800
N901        N  0.81103423  0.22795788  0.59750324    -0.36000
N902        N  0.72957150  0.17682090  0.63872874    -0.56600
N903        N  0.77524509  0.26282188  0.67928467    -0.36000
N904        N  0.86048394  0.31026903  0.63812004    -0.56600
C905        C  0.78756537  0.18073868  0.58635431     0.27600
C906        C  0.85797523  0.25274004  0.58591385     0.27600
C907        C  0.73975757  0.22674288  0.69692460     0.27600
C908        C  0.81103003  0.29901725  0.69670257     0.27600
C909        C  0.70839040  0.14827360  0.61449737     0.36200
C910        C  0.69113188  0.16586821  0.65741184     0.36200
C911        C  0.88877197  0.33182866  0.61382385     0.36200
C912        C  0.87108746  0.34847772  0.65687630     0.36200
C913        C  0.81991877  0.17529008  0.56732608    -0.21300
C914        C  0.86456304  0.22098897  0.56702131    -0.21300
C915        C  0.75179678  0.24152375  0.72587101    -0.21300
C916        C  0.79670693  0.28703004  0.72573523    -0.21300
C917        C  0.65644768  0.11953699  0.61760819    -0.22300
C918        C  0.64564574  0.13082588  0.64476668    -0.22300
C919        C  0.91703549  0.38374088  0.61698150    -0.22300
C920        C  0.90580897  0.39415597  0.64423131    -0.22300
C921        C  0.73607562  0.14479849  0.59078071    -0.17700
C922        C  0.89259796  0.30465978  0.58997197    -0.17700
C923        C  0.85600704  0.34214369  0.68670394    -0.17700
C924        C  0.69724131  0.18108560  0.68718386    -0.17700
H925        H  0.81173784  0.14230599  0.55445558     0.15200
H926        H  0.89760163  0.23018248  0.55389433     0.15200
H927        H  0.73057341  0.22183691  0.74512181     0.15200
H928        H  0.81628464  0.30868218  0.74487678     0.15200
H929        H  0.62938852  0.09240910  0.60228033     0.13500
H930        H  0.60874085  0.11397801  0.65463354     0.13500
H931        H  0.94392683  0.41105483  0.60164405     0.13500
H932        H  0.92265390  0.43096722  0.65415917     0.13500
H933        H  0.79359638  0.24448871  0.60894257     0.26800
H934        H  0.77386967  0.26386504  0.65651741     0.26800
N935        N  0.70139170  0.08803222  0.51588795    -0.36000
N936        N  0.66188898  0.01167543  0.56139688    -0.56600
N937        N  0.62485158  0.93580778  0.51587855    -0.36000
N938        N  0.66308055  0.01205358  0.97049498    -0.56600
C939        C  0.70576652  0.11599741  0.53981865     0.27600
C940        C  0.70597567  0.11569869  0.99237716     0.27600
C941        C  0.60025829  0.90775721  0.53965475     0.27600
C942        C  0.60074384  0.90800402  0.99174953     0.27600
C943        C  0.69229388  0.05249745  0.57787397     0.36200
C944        C  0.65043839  0.97058260  0.57788910     0.36200
C945        C  0.69434700  0.05308514  0.95439785     0.36200
C946        C  0.65289493  0.97124688  0.95416343     0.36200
C947        C  0.71191149  0.16226062  0.53115452    -0.21300
C948        C  0.71158215  0.16237923  0.50098061    -0.21300
C949        C  0.55987266  0.86173776  0.53076607    -0.21300
C950        C  0.56033825  0.86180148  0.50060174    -0.21300
C951        C  0.69985025  0.03735443  0.60517347    -0.22300
C952        C  0.67321363  0.98527902  0.60518942    -0.22300
C953        C  0.70396589  0.03835990  0.92754657    -0.22300
C954        C  0.67753417  0.98629103  0.92738481    -0.22300
C955        C  0.71025460  0.10298738  0.56899040    -0.17700
C956        C  0.71092325  0.10330871  0.96314920    -0.17700
C957        C  0.61872100  0.92095766  0.96265814    -0.17700
C958        C  0.61718278  0.92029120  0.56891144    -0.17700
H959        H  0.71768728  0.19332006  0.54512664     0.15200
H960        H  0.71683172  0.19265908  0.98735575     0.15200
H961        H  0.53385304  0.83069823  0.54460160     0.15200
H962        H  0.53403951  0.83134283  0.98614989     0.15200
H963        H  0.72171641  0.06125442  0.62326950     0.13500
H964        H  0.67052478  0.96110020  0.62328261     0.13500
H965        H  0.72699912  0.06252303  0.90982147     0.13500
H966        H  0.67610626  0.96233379  0.90951776     0.13500
H967        H  0.70359926  0.05518029  0.51580042     0.26800
H968        H  0.66023908  0.96847983  0.51596432     0.26800
N969        N  0.80823460  0.57860658  0.93482398    -0.36000
N970        N  0.72691698  0.54829662  0.89323182    -0.56600
N971        N  0.77332815  0.50921553  0.85263913    -0.36000
N972        N  0.85821883  0.54653883  0.89427236    -0.56600
C973        C  0.78429780  0.60171948  0.94611418     0.27600
C974        C  0.85498988  0.60089069  0.94674594     0.27600
C975        C  0.73792152  0.50974087  0.83487228     0.27600
C976        C  0.80923025  0.50876766  0.83537024     0.27600
C977        C  0.70550182  0.55545610  0.91736734     0.36200
C978        C  0.68880222  0.52165572  0.87417756     0.36200
C979        C  0.88701957  0.55407484  0.91843593     0.36200
C980        C  0.86944515  0.51968398  0.87533711     0.36200
C981        C  0.81605342  0.63899553  0.96565834    -0.21300
C982        C  0.86080612  0.63843201  0.96608238    -0.21300
C983        C  0.75004787  0.50668549  0.80600537    -0.21300
C984        C  0.79492618  0.50612582  0.80630864    -0.21300
C985        C  0.65367148  0.53281031  0.91386590    -0.22300
C986        C  0.64320533  0.51141521  0.88651653    -0.22300
C987        C  0.91619805  0.53156865  0.91505715    -0.22300
C988        C  0.90498676  0.50981107  0.88780991    -0.22300
C989        C  0.73294717  0.58632568  0.94125508    -0.17700
C990        C  0.89060049  0.58504995  0.94227722    -0.17700
C991        C  0.85443153  0.51108552  0.84546187    -0.17700
C992        C  0.69547539  0.51324747  0.84439660    -0.17700
H993        H  0.80747620  0.66327509  0.97872909     0.15200
H994        H  0.89349658  0.66225653  0.97949832     0.15200
H995        H  0.72883738  0.50483363  0.78670261     0.15200
H996        H  0.81451328  0.50386277  0.78724904     0.15200
H997        H  0.62651445  0.53300575  0.92901631     0.13500
H998        H  0.60650832  0.49215609  0.87630452     0.13500
H999        H  0.94371414  0.53206189  0.93022478     0.13500
H1000       H  0.92251263  0.49065854  0.87773762     0.13500
H1001       H  0.79125510  0.54512847  0.92285862     0.26800
H1002       H  0.77195346  0.50702401  0.87540298     0.26800
N1003       N  0.80962421  0.57955939  0.59843704    -0.36000
N1004       N  0.86045517  0.55017211  0.64031183    -0.56600
N1005       N  0.77924488  0.52014127  0.68312588    -0.36000
N1006       N  0.73026803  0.55306970  0.64026586    -0.56600
C1007       C  0.85636580  0.60136435  0.58656186     0.27600
C1008       C  0.78571171  0.60223918  0.58639573     0.27600
C1009       C  0.81856632  0.52749272  0.70021506     0.27600
C1010       C  0.74799011  0.52863748  0.70010449     0.27600
C1011       C  0.88969712  0.55706165  0.61651507     0.36200
C1012       C  0.87467998  0.52814276  0.66097641     0.36200
C1013       C  0.70795071  0.55914549  0.61616673     0.36200
C1014       C  0.69354486  0.53043453  0.66064239     0.36200
C1015       C  0.86223133  0.63822982  0.56659573    -0.21300
C1016       C  0.81749967  0.63878909  0.56649915    -0.21300
C1017       C  0.81233434  0.54088593  0.72822652    -0.21300
C1018       C  0.76759118  0.54158457  0.72815108    -0.21300
C1019       C  0.92184758  0.53833609  0.62177869    -0.22300
C1020       C  0.91269217  0.52054297  0.65002953    -0.22300
C1021       C  0.65674787  0.53946964  0.62098831    -0.22300
C1022       C  0.64775767  0.52167492  0.64922309    -0.22300
C1023       C  0.89216076  0.58593733  0.59174111    -0.17700
C1024       C  0.73459142  0.58765990  0.59134441    -0.17700
C1025       C  0.70263851  0.52548572  0.69056273    -0.17700
C1026       C  0.86016450  0.52318622  0.69082921    -0.17700
H1027       H  0.89503442  0.66174628  0.55317577     0.15200
H1028       H  0.80907610  0.66278359  0.55299556     0.15200
H1029       H  0.83887101  0.55198359  0.74619398     0.15200
H1030       H  0.75267084  0.55333256  0.74602330     0.15200
H1031       H  0.95090603  0.54005943  0.60745244     0.13500
H1032       H  0.93420326  0.50709487  0.66189329     0.13500
H1033       H  0.62926537  0.54009047  0.60626233     0.13500
H1034       H  0.61219053  0.50679445  0.66058938     0.13500
H1035       H  0.79280321  0.54674695  0.61107186     0.26800
H1036       H  0.77251507  0.50700914  0.66155869     0.26800
N1037       N  0.24198771  0.79790621  0.59858999    -0.36000
N1038       N  0.32246116  0.84876010  0.63988682    -0.56600
N1039       N  0.27104026  0.76800127  0.68321427    -0.36000
N1040       N  0.18904337  0.71881001  0.64088186    -0.56600
C1041       C  0.26679100  0.84462387  0.58665714     0.27600
C1042       C  0.19502122  0.77399895  0.58698820     0.27600
C1043       C  0.30365618  0.80747165  0.69993911     0.27600
C1044       C  0.23143879  0.73729149  0.70053867     0.27600
C1045       C  0.34495109  0.87746741  0.61590466     0.36200
C1046       C  0.35912919  0.86225308  0.66020546     0.36200
C1047       C  0.16068679  0.69627795  0.61679608     0.36200
C1048       C  0.17473767  0.68234996  0.66146802     0.36200
C1049       C  0.23527188  0.85054788  0.56715390    -0.21300
C1050       C  0.18980385  0.80578873  0.56735405    -0.21300
C1051       C  0.28459892  0.80196995  0.72807710    -0.21300
C1052       C  0.23880330  0.75742291  0.72846606    -0.21300
C1053       C  0.39626932  0.90861148  0.62072343    -0.22300
C1054       C  0.40512097  0.89922719  0.64886385    -0.22300
C1055       C  0.12907101  0.64511218  0.62180222    -0.22300
C1056       C  0.13766310  0.63644314  0.65017365    -0.22300
C1057       C  0.31837730  0.88014472  0.59131124    -0.17700
C1058       C  0.15870073  0.72277438  0.59192184    -0.17700
C1059       C  0.18894214  0.69185941  0.69137871    -0.17700
C1060       C  0.34984261  0.84833273  0.69012712    -0.17700
H1061       H  0.24436331  0.88334624  0.55380911     0.15200
H1062       H  0.15698779  0.79730162  0.55417643     0.15200
H1063       H  0.30075015  0.82882367  0.74583064     0.15200
H1064       H  0.21250713  0.74292423  0.74658359     0.15200
H1065       H  0.42387622  0.93702717  0.60614234     0.13500
H1066       H  0.44060015  0.91986577  0.66039579     0.13500
H1067       H  0.10094052  0.61746967  0.60712972     0.13500
H1068       H  0.11686852  0.60100388  0.66166555     0.13500
H1069       H  0.25821267  0.78095217  0.61085480     0.26800
H1070       H  0.27708797  0.76077032  0.66168773     0.26800
N1071       N  0.24059803  0.79819498  0.93479459    -0.36000
N1072       N  0.18935505  0.71588488  0.89400495    -0.56600
N1073       N  0.27458995  0.76238434  0.85304771    -0.36000
N1074       N  0.32249364  0.84804607  0.89376595    -0.56600
C1075       C  0.19346543  0.77439211  0.94618232     0.27600
C1076       C  0.26520876  0.84519417  0.94627907     0.27600
C1077       C  0.23861118  0.72611311  0.83569109     0.27600
C1078       C  0.31057164  0.79797556  0.83537447     0.27600
C1079       C  0.16147818  0.69490268  0.91846908     0.36200
C1080       C  0.17872352  0.67724488  0.87560395     0.36200
C1081       C  0.34414719  0.87659613  0.91794171     0.36200
C1082       C  0.36052168  0.85892151  0.87476971     0.36200
C1083       C  0.18793342  0.80659217  0.96526739    -0.21300
C1084       C  0.23343991  0.85144762  0.96536399    -0.21300
C1085       C  0.25316842  0.73767195  0.80667119    -0.21300
C1086       C  0.29844963  0.78286548  0.80648079    -0.21300
C1087       C  0.13352066  0.64285642  0.91582918    -0.22300
C1088       C  0.14456080  0.63178160  0.88867665    -0.22300
C1089       C  0.39602914  0.90529770  0.91450071    -0.22300
C1090       C  0.40627674  0.89415205  0.88715581    -0.22300
C1091       C  0.15772359  0.72276788  0.94193356    -0.17700
C1092       C  0.31695429  0.88038394  0.94183802    -0.17700
C1093       C  0.35383808  0.84328615  0.84500604    -0.17700
C1094       C  0.19347724  0.68307416  0.84575918    -0.17700
H1095       H  0.15503061  0.79818402  0.97831836     0.15200
H1096       H  0.24247546  0.88444377  0.97845769     0.15200
H1097       H  0.23364207  0.71580840  0.78757420     0.15200
H1098       H  0.32005494  0.80196092  0.78723066     0.15200
H1099       H  0.10706251  0.61588841  0.93147203     0.13500
H1100       H  0.12817696  0.59467302  0.87915416     0.13500
H1101       H  0.42338695  0.93251180  0.92967793     0.13500
H1102       H  0.44298908  0.91150366  0.87697109     0.13500
H1103       H  0.25722224  0.78103216  0.92318237     0.26800
H1104       H  0.27590848  0.76150291  0.87581394     0.26800
N1105       N  0.45920276  0.22881738  0.59791795    -0.36000
N1106       N  0.48826304  0.30927816  0.63864861    -0.56600
N1107       N  0.52113699  0.26069075  0.68239213    -0.36000
N1108       N  0.48747712  0.17782077  0.64047184    -0.56600
C1109       C  0.43651894  0.25274630  0.58589870     0.27600
C1110       C  0.43657460  0.18174447  0.58663547     0.27600
C1111       C  0.51279040  0.29280397  0.69862164     0.27600
C1112       C  0.51208809  0.22122239  0.69989898     0.27600
C1113       C  0.48299067  0.33139059  0.61420734     0.36200
C1114       C  0.51413569  0.34678758  0.65809662     0.36200
C1115       C  0.48131273  0.14901727  0.61655222     0.36200
C1116       C  0.51011533  0.16413349  0.66109510     0.36200
C1117       C  0.39890369  0.22047620  0.56668418    -0.21300
C1118       C  0.39895364  0.17546867  0.56713598    -0.21300
C1119       C  0.49802618  0.27350791  0.72660455    -0.21300
C1120       C  0.49775707  0.22821608  0.72746608    -0.21300
C1121       C  0.50644079  0.38320358  0.61783811    -0.22300
C1122       C  0.52636432  0.39288975  0.64563312    -0.22300
C1123       C  0.50095993  0.11765409  0.62173770    -0.22300
C1124       C  0.51874526  0.12694873  0.64998697    -0.22300
C1125       C  0.45241828  0.30430948  0.59013700    -0.17700
C1126       C  0.45260576  0.14644130  0.59161875    -0.17700
C1127       C  0.51516978  0.17868527  0.69099066    -0.17700
C1128       C  0.51761430  0.33855194  0.68829843    -0.17700
H1129       H  0.37475139  0.22883484  0.55328281     0.15200
H1130       H  0.37481187  0.14230606  0.55415536     0.15200
H1131       H  0.48540183  0.28890640  0.74376347     0.15200
H1132       H  0.48493320  0.20165925  0.74547405     0.15200
H1133       H  0.50739054  0.41077918  0.60254998     0.13500
H1134       H  0.54519905  0.42927184  0.65617954     0.13500
H1135       H  0.50020921  0.08923732  0.60727727     0.13500
H1136       H  0.53352433  0.10647893  0.66160123     0.13500
H1137       H  0.49272232  0.24569710  0.60993621     0.26800
H1138       H  0.53491475  0.26676475  0.66094851     0.26800
N1139       N  0.45739080  0.22840794  0.93387951    -0.36000
N1140       N  0.49002248  0.17801253  0.89358415    -0.56600
N1141       N  0.52376954  0.26047518  0.85105944    -0.36000
N1142       N  0.48456907  0.30752487  0.89140751    -0.56600
C1143       C  0.43576200  0.18185871  0.94603112     0.27600
C1144       C  0.43398718  0.25200888  0.94527241     0.27600
C1145       C  0.52595677  0.22512502  0.83421001     0.27600
C1146       C  0.52274394  0.29498690  0.83284576     0.27600
C1147       C  0.48349273  0.15030142  0.91807647     0.36200
C1148       C  0.51690124  0.16668844  0.87471167     0.36200
C1149       C  0.47658596  0.32948185  0.91506040     0.36200
C1150       C  0.50776032  0.34429792  0.87104532     0.36200
C1151       C  0.39819313  0.17577002  0.96546917    -0.21300
C1152       C  0.39713186  0.22021759  0.96502497    -0.21300
C1153       C  0.52919756  0.23896223  0.80501986    -0.21300
C1154       C  0.52738503  0.28304949  0.80420855    -0.21300
C1155       C  0.50680403  0.12177838  0.91497089    -0.22300
C1156       C  0.52800740  0.13230656  0.88752266    -0.22300
C1157       C  0.49521942  0.38037552  0.90987697    -0.22300
C1158       C  0.51448188  0.38956654  0.88199512    -0.22300
C1159       C  0.45248579  0.14686889  0.94190588    -0.17700
C1160       C  0.44834142  0.30299059  0.94007935    -0.17700
C1161       C  0.51747951  0.33661338  0.84158026    -0.17700
C1162       C  0.52482978  0.18087164  0.84474163    -0.17700
H1163       H  0.37477471  0.14314773  0.97903817     0.15200
H1164       H  0.37267969  0.22852327  0.97813648     0.15200
H1165       H  0.53300313  0.21980070  0.78622135     0.15200
H1166       H  0.52986836  0.30419409  0.78478783     0.15200
H1167       H  0.50718260  0.09511168  0.93045999     0.13500
H1168       H  0.54778378  0.11529341  0.87756944     0.13500
H1169       H  0.49349702  0.40765240  0.92421429     0.13500
H1170       H  0.52993976  0.42519393  0.87064470     0.13500
H1171       H  0.49070645  0.24553731  0.92172450     0.26800
H1172       H  0.52530622  0.26227679  0.87380727     0.26800
N1173       N  0.42802161  0.33832494  0.51540472    -0.36000
N1174       N  0.38957800  0.37703275  0.97002452    -0.56600
N1175       N  0.34954768  0.41213493  0.51597803    -0.36000
N1176       N  0.39121704  0.37707134  0.56135130    -0.56600
C1177       C  0.45089527  0.33376471  0.99122445     0.27600
C1178       C  0.45232923  0.33405464  0.53907997     0.27600
C1179       C  0.34551021  0.43697056  0.99210369     0.27600
C1180       C  0.34485086  0.43543666  0.53994163     0.27600
C1181       C  0.39920912  0.34596045  0.95370856     0.36200
C1182       C  0.35825476  0.38681638  0.95398687     0.36200
C1183       C  0.40336371  0.34783644  0.57776753     0.36200
C1184       C  0.36064725  0.38701613  0.57801319     0.36200
C1185       C  0.49130182  0.32747322  0.49971759    -0.21300
C1186       C  0.49188312  0.32741412  0.52990607    -0.21300
C1187       C  0.33798206  0.47545610  0.50116667    -0.21300
C1188       C  0.33779862  0.47499443  0.53132466    -0.21300
C1189       C  0.37421441  0.33623681  0.92704215    -0.22300
C1190       C  0.34825442  0.36222057  0.92720700    -0.22300
C1191       C  0.38111469  0.33987861  0.60522241    -0.22300
C1192       C  0.35402140  0.36473179  0.60537229    -0.22300
C1193       C  0.43282324  0.32905922  0.96210528    -0.17700
C1194       C  0.43599850  0.33017552  0.56851064    -0.17700
C1195       C  0.34105219  0.41823476  0.56914214    -0.17700
C1196       C  0.34119314  0.42006486  0.96279560    -0.17700
H1197       H  0.51605377  0.32157242  0.98553685     0.15200
H1198       H  0.51747429  0.32151420  0.54355482     0.15200
H1199       H  0.33233521  0.50164848  0.98736979     0.15200
H1200       H  0.33161902  0.49995911  0.54532148     0.15200
H1201       H  0.37490665  0.31318496  0.90925929     0.13500
H1202       H  0.32493969  0.36309750  0.90959679     0.13500
H1203       H  0.38406553  0.31846308  0.62326169     0.13500
H1204       H  0.33212281  0.36632039  0.62355654     0.13500
H1205       H  0.39307371  0.33638111  0.51571539     0.26800
H1206       H  0.34807925  0.37741151  0.51588786     0.26800
N1207       N  0.24093607  0.44515297  0.93358728    -0.36000
N1208       N  0.18964903  0.47270567  0.89101938    -0.56600
N1209       N  0.27089177  0.50217077  0.84835010    -0.36000
N1210       N  0.32027212  0.47090038  0.89188305    -0.56600
C1211       C  0.19417756  0.42374204  0.94540457     0.27600
C1212       C  0.26443309  0.42208568  0.94567644     0.27600
C1213       C  0.23162958  0.49429405  0.83106268     0.27600
C1214       C  0.30252735  0.49387309  0.83166900     0.27600
C1215       C  0.16137826  0.46779219  0.91500335     0.36200
C1216       C  0.17595425  0.49484431  0.87010557     0.36200
C1217       C  0.34244718  0.46502150  0.91613038     0.36200
C1218       C  0.35708528  0.49337706  0.87152592     0.36200
C1219       C  0.18775634  0.38661260  0.96530162    -0.21300
C1220       C  0.23224018  0.38553037  0.96545456    -0.21300
C1221       C  0.23816992  0.48062387  0.80319860    -0.21300
C1222       C  0.28316537  0.48038042  0.80357625    -0.21300
C1223       C  0.13026143  0.48762941  0.90954066    -0.22300
C1224       C  0.13922948  0.50433936  0.88106777    -0.22300
C1225       C  0.39369724  0.48476429  0.91142628    -0.22300
C1226       C  0.40283094  0.50232411  0.88311025    -0.22300
C1227       C  0.15915286  0.44017159  0.94036022    -0.17700
C1228       C  0.31557616  0.43645685  0.94093308    -0.17700
C1229       C  0.34816673  0.49805606  0.84150800    -0.17700
C1230       C  0.19015443  0.49891640  0.84019557    -0.17700
H1231       H  0.15479148  0.36335416  0.97866598     0.15200
H1232       H  0.24028239  0.36127824  0.97897087     0.15200
H1233       H  0.21179515  0.46923639  0.78513533     0.15200
H1234       H  0.29853922  0.46881659  0.78584189     0.15200
H1235       H  0.10226115  0.48776641  0.92400674     0.13500
H1236       H  0.11884960  0.51901753  0.86927419     0.13500
H1237       H  0.42108343  0.48422907  0.92626946     0.13500
H1238       H  0.43838809  0.51696128  0.87170805     0.13500
H1239       H  0.25804693  0.47807003  0.92102956     0.26800
H1240       H  0.27747147  0.51578706  0.86981440     0.26800
N1241       N  0.24029060  0.44281193  0.59753540    -0.36000
N1242       N  0.32126078  0.47308509  0.63879286    -0.56600
N1243       N  0.27517821  0.51356904  0.67928170    -0.36000
N1244       N  0.19074831  0.47644347  0.63801263    -0.56600
C1245       C  0.26356255  0.41893364  0.58630523     0.27600
C1246       C  0.19353004  0.42118506  0.58571605     0.27600
C1247       C  0.31068036  0.51314602  0.69693177     0.27600
C1248       C  0.23939093  0.51403558  0.69667102     0.27600
C1249       C  0.34247558  0.46506626  0.61481093     0.36200
C1250       C  0.35959120  0.50078009  0.65753074     0.36200
C1251       C  0.16294725  0.46990889  0.61356238     0.36200
C1252       C  0.17988603  0.50386336  0.65674364     0.36200
C1253       C  0.23123761  0.38165581  0.56693672    -0.21300
C1254       C  0.18688417  0.38311368  0.56654417    -0.21300
C1255       C  0.29861206  0.51595316  0.72585994    -0.21300
C1256       C  0.25372282  0.51649938  0.72569541    -0.21300
C1257       C  0.39434030  0.48802504  0.61814107    -0.22300
C1258       C  0.40506074  0.51055657  0.64516707    -0.22300
C1259       C  0.13483611  0.49368655  0.61656883    -0.22300
C1260       C  0.14566356  0.51517476  0.64390437    -0.22300
C1261       C  0.31490200  0.43387364  0.59102136    -0.17700
C1262       C  0.15911120  0.43869230  0.58979586    -0.17700
C1263       C  0.19445662  0.51222431  0.68664453    -0.17700
C1264       C  0.35335683  0.51031049  0.68723357    -0.17700
H1265       H  0.23924000  0.35691460  0.55391224     0.15200
H1266       H  0.15399535  0.35969592  0.55316707     0.15200
H1267       H  0.31994549  0.51777361  0.74510330     0.15200
H1268       H  0.23423966  0.51885684  0.74478476     0.15200
H1269       H  0.42142096  0.48752279  0.60305763     0.13500
H1270       H  0.44190601  0.53024698  0.65518098     0.13500
H1271       H  0.10828586  0.49427848  0.60106875     0.13500
H1272       H  0.12910182  0.53548329  0.65370857     0.13500
H1273       H  0.25770524  0.47655061  0.60925249     0.26800
H1274       H  0.27672320  0.51597435  0.65651736     0.26800
N1275       N  0.02602109  0.38389621  0.96991300    -0.36000
N1276       N  0.10250576  0.42057324  0.51508015    -0.56600
N1277       N  0.02581112  0.38222448  0.56052537    -0.36000
N1278       N  0.94924732  0.34357095  0.51520742    -0.56600
C1279       C  0.06720169  0.39224988  0.95437382     0.27600
C1280       C  0.98479896  0.35047270  0.95460609     0.27600
C1281       C  0.06710891  0.39093891  0.57610626     0.27600
C1282       C  0.98459425  0.34944807  0.57616336     0.27600
C1283       C  0.13159084  0.44418115  0.99141913     0.36200
C1284       C  0.13182609  0.44248085  0.53883227     0.36200
C1285       C  0.92028073  0.33791445  0.99166313     0.36200
C1286       C  0.91979515  0.33575682  0.53893374     0.36200
C1287       C  0.05202025  0.36422374  0.92868949    -0.21300
C1288       C  0.99987397  0.33777576  0.92883671    -0.21300
C1289       C  0.05200752  0.36414578  0.60225290    -0.21300
C1290       C  0.99983192  0.33791790  0.60228888    -0.21300
C1291       C  0.17963943  0.48060274  0.50016554    -0.22300
C1292       C  0.17971903  0.47995122  0.53026444    -0.22300
C1293       C  0.87207483  0.32597750  0.50025087    -0.22300
C1294       C  0.87187173  0.32499369  0.53033530    -0.22300
C1295       C  0.11789382  0.42641180  0.96238550    -0.17700
C1296       C  0.93414223  0.33367184  0.96273945    -0.17700
C1297       C  0.93375445  0.33165368  0.56787052    -0.17700
C1298       C  0.11789565  0.42432145  0.56776051    -0.17700
H1299       H  0.07596743  0.36310579  0.91157597     0.15200
H1300       H  0.97584252  0.31238777  0.91182391     0.15200
H1301       H  0.07605006  0.36362008  0.61953035     0.15200
H1302       H  0.97587781  0.31325947  0.61959182     0.15200
H1303       H  0.21163110  0.50486484  0.98637792     0.13500
H1304       H  0.21187916  0.50303723  0.54421673     0.13500
H1305       H  0.84050577  0.31907595  0.98629053     0.13500
H1306       H  0.83962094  0.31555833  0.54424924     0.13500
H1307       H  0.02593302  0.40381137  0.98840108     0.26800
H1308       H  0.02578798  0.40146197  0.54168904     0.26800
N1309       N  0.35289242  0.93749295  0.51656391    -0.36000
N1310       N  0.39265393  0.01353641  0.97114039    -0.56600
N1311       N  0.43135947  0.08996698  0.51670124    -0.36000
N1312       N  0.39436857  0.01343843  0.56224485    -0.56600
C1313       C  0.34856507  0.90916121  0.99263795     0.27600
C1314       C  0.34865579  0.90912074  0.54030684     0.27600
C1315       C  0.45423892  0.11797499  0.99291476     0.27600
C1316       C  0.45502412  0.11806546  0.54061917     0.27600
C1317       C  0.36138055  0.97272991  0.95486083     0.36200
C1318       C  0.40317347  0.05465333  0.95492041     0.36200
C1319       C  0.36278319  0.97250051  0.57836867     0.36200
C1320       C  0.40427088  0.05432825  0.57845677     0.36200
C1321       C  0.34020312  0.86251539  0.50116682    -0.21300
C1322       C  0.34104995  0.86246471  0.53134474    -0.21300
C1323       C  0.49459625  0.16495800  0.50168189    -0.21300
C1324       C  0.49459778  0.16477683  0.53188087    -0.21300
C1325       C  0.35240650  0.98789770  0.92795878    -0.22300
C1326       C  0.37898695  0.03996221  0.92798618    -0.22300
C1327       C  0.35312915  0.98736530  0.60514074    -0.22300
C1328       C  0.37944117  0.03935959  0.60518538    -0.22300
C1329       C  0.34350915  0.92218080  0.96359222    -0.17700
C1330       C  0.34484000  0.92203369  0.56956102    -0.17700
C1331       C  0.43754505  0.10481048  0.56980498    -0.17700
C1332       C  0.43656719  0.10503452  0.96374436    -0.17700
H1333       H  0.33540093  0.83139790  0.98721863     0.15200
H1334       H  0.33484909  0.83100711  0.54513613     0.15200
H1335       H  0.51871953  0.19610062  0.98766997     0.15200
H1336       H  0.51966007  0.19611294  0.54581824     0.15200
H1337       H  0.32944979  0.96400645  0.91014260     0.13500
H1338       H  0.38053385  0.06416221  0.91019179     0.13500
H1339       H  0.32964307  0.96331536  0.62277137     0.13500
H1340       H  0.38025658  0.06333363  0.62286945     0.13500
H1341       H  0.35151538  0.97078567  0.51676080     0.26800
H1342       H  0.39644539  0.05678350  0.51670103     0.26800
N1343       N  0.10149746  0.68836720  0.51701106    -0.36000
N1344       N  0.02455670  0.64693887  0.97126726    -0.56600
N1345       N  0.94926210  0.60795951  0.51720663    -0.36000
N1346       N  0.02565173  0.64674879  0.56269134    -0.56600
C1347       C  0.12917307  0.69246119  0.99287626     0.27600
C1348       C  0.12992796  0.69287435  0.54079862     0.27600
C1349       C  0.92074617  0.58406046  0.99302610     0.27600
C1350       C  0.92177126  0.58357003  0.54117083     0.27600
C1351       C  0.06527517  0.67797756  0.95484625     0.36200
C1352       C  0.98327300  0.63515838  0.95483398     0.36200
C1353       C  0.06637106  0.67890517  0.57873283     0.36200
C1354       C  0.98448597  0.63641230  0.57877514     0.36200
C1355       C  0.17664557  0.70125434  0.50168570    -0.21300
C1356       C  0.17668117  0.70059542  0.53186147    -0.21300
C1357       C  0.87542557  0.54263598  0.50240180    -0.21300
C1358       C  0.87588631  0.54261370  0.53258799    -0.21300
C1359       C  0.04988120  0.68544737  0.92760382    -0.22300
C1360       C  0.99777435  0.65827086  0.92760712    -0.22300
C1361       C  0.05111584  0.68878003  0.60532480    -0.22300
C1362       C  0.99902648  0.66178954  0.60533972    -0.22300
C1363       C  0.11596109  0.69676149  0.96374479    -0.17700
C1364       C  0.11690578  0.69665563  0.57007069    -0.17700
C1365       C  0.93430986  0.60180442  0.57019657    -0.17700
C1366       C  0.93298244  0.60157271  0.96382831    -0.17700
H1367       H  0.20669470  0.70477995  0.98749204     0.15200
H1368       H  0.20818123  0.70692669  0.54565964     0.15200
H1369       H  0.84355542  0.51781050  0.98819415     0.15200
H1370       H  0.84512598  0.51673318  0.54662951     0.15200
H1371       H  0.07364976  0.70775713  0.90956185     0.13500
H1372       H  0.97344593  0.65554490  0.90959065     0.13500
H1373       H  0.07496490  0.71262282  0.62289830     0.13500
H1374       H  0.97472444  0.66062940  0.62294404     0.13500
H1375       H  0.06799348  0.68939775  0.51712590     0.26800
H1376       H  0.98144817  0.64369570  0.51711521     0.26800
N1377       N  0.69951974  0.60990271  0.51648618    -0.36000
N1378       N  0.65997660  0.64655754  0.97035964    -0.56600
N1379       N  0.62322267  0.68559172  0.51658631    -0.36000
N1380       N  0.66039673  0.64660694  0.56208807    -0.56600
C1381       C  0.70234022  0.58506720  0.99201813     0.27600
C1382       C  0.70381260  0.58612142  0.54039898     0.27600
C1383       C  0.60007530  0.69074788  0.99218791     0.27600
C1384       C  0.59957387  0.68998793  0.54050361     0.27600
C1385       C  0.68979404  0.63546791  0.95386939     0.36200
C1386       C  0.64950525  0.67693148  0.95394024     0.36200
C1387       C  0.69134787  0.63666813  0.57833841     0.36200
C1388       C  0.65010707  0.67714266  0.57843244     0.36200
C1389       C  0.70923793  0.54557878  0.50154042    -0.21300
C1390       C  0.70965963  0.54590333  0.53170534    -0.21300
C1391       C  0.55965448  0.69665646  0.50162441    -0.21300
C1392       C  0.55980977  0.69666481  0.53178982    -0.21300
C1393       C  0.69790725  0.65842449  0.92660798    -0.22300
C1394       C  0.67225492  0.68475025  0.92664493    -0.22300
C1395       C  0.70038251  0.66055999  0.60531438    -0.22300
C1396       C  0.67415070  0.68625201  0.60537882    -0.22300
C1397       C  0.70700279  0.60242062  0.96281970    -0.17700
C1398       C  0.70863931  0.60363893  0.56956255    -0.17700
C1399       C  0.61688781  0.69425350  0.56970970    -0.17700
C1400       C  0.61706107  0.69483203  0.96292874    -0.17700
H1401       H  0.71336194  0.51911999  0.98690883     0.15200
H1402       H  0.71531620  0.52048425  0.54565045     0.15200
H1403       H  0.53526490  0.70366656  0.98707563     0.15200
H1404       H  0.53461310  0.70263028  0.54572513     0.15200
H1405       H  0.71957481  0.65608042  0.90853117     0.13500
H1406       H  0.67022919  0.70670476  0.90860175     0.13500
H1407       H  0.72311012  0.65929931  0.62315081     0.13500
H1408       H  0.67269164  0.70873443  0.62325639     0.13500
H1409       H  0.70195826  0.64507674  0.51638452     0.26800
H1410       H  0.65813509  0.68743316  0.51649291     0.26800
O1411       O  0.56765633  0.63820916  0.70745462    -0.74700
O1412       O  0.50089416  0.63401198  0.73237110    -0.53600
C1413       C  0.53458672  0.65165965  0.71181444     0.79000
O1414       O  0.48719380  0.39180500  0.70317608    -0.59300
O1415       O  0.55070082  0.39302504  0.73036473    -0.52300
C1416       C  0.51843661  0.37642774  0.70907635     0.71100
O1417       O  0.40489936  0.47821205  0.70328194    -0.73800
O1418       O  0.40803435  0.54295208  0.72970996    -0.54400
C1419       C  0.39083244  0.51067645  0.70851872     0.77100
O1420       O  0.65354996  0.55855529  0.70839449    -0.59000
O1421       O  0.64671081  0.48925870  0.73179279    -0.52100
C1422       C  0.66592574  0.52454691  0.71219571     0.73700
Zr1423     Zr  0.59475495  0.58252933  0.72739822     2.54700
O1424       O  0.62070944  0.60772726  0.67678274    -0.79500
O1425       O  0.66976968  0.65936803  0.74372857    -0.93000
Zr1426     Zr  0.46473860  0.45327823  0.71978329     2.64700
O1427       O  0.47263681  0.46491120  0.66679803    -0.97900
O1428       O  0.38433941  0.37448692  0.71595808    -0.80000
O1429       O  0.50550477  0.54236870  0.72298074    -0.83300
O1430       O  0.55392583  0.49330854  0.72264759    -2.18000
O1431       O  0.64408439  0.54617043  0.82853961    -0.66700
O1432       O  0.64160756  0.48206927  0.80158775    -0.51300
C1433       C  0.65844362  0.51386671  0.82303882     0.72000
O1434       O  0.39900672  0.46680748  0.82418206    -0.56900
O1435       O  0.40272322  0.53384427  0.79971719    -0.51600
C1436       C  0.38530995  0.49969634  0.81999660     0.73800
O1437       O  0.48161798  0.38305197  0.82261343    -0.71000
O1438       O  0.55225841  0.39241560  0.79981904    -0.49700
C1439       C  0.51698997  0.37228274  0.81933770     0.75200
O1440       O  0.55790157  0.63027760  0.82910804    -0.66400
O1441       O  0.49290435  0.62708433  0.80270184    -0.53600
C1442       C  0.52508259  0.64405702  0.82395847     0.73600
Zr1443     Zr  0.58468594  0.57215308  0.81153156     2.77500
O1444       O  0.57927222  0.57191862  0.86481420    -0.97100
O1445       O  0.66497407  0.65141462  0.81045266    -0.77900
Zr1446     Zr  0.45549437  0.44107293  0.80415022     2.70100
O1447       O  0.43333503  0.41761025  0.85534802    -0.79200
O1448       O  0.37861981  0.36459921  0.78930617    -0.98300
Zr1449     Zr  0.47434283  0.56192949  0.76597434     2.21500
Zr1450     Zr  0.57494977  0.46224178  0.76543170     2.11100
O1451       O  0.54458727  0.48303077  0.80850580    -2.47000
O1452       O  0.49530977  0.53036785  0.80845793    -0.79000
O1453       O  0.61690721  0.55262966  0.76935747    -0.71200
O1454       O  0.43285766  0.47145439  0.76242277    -2.32100
O1455       O  0.56486754  0.60431595  0.76949857    -2.28300
O1456       O  0.48450726  0.41997484  0.76155290    -0.72900
H1457       H  0.56537036  0.48441499  0.70514454     0.79100
H1458       H  0.39653519  0.45657605  0.76133843     0.80200
H1459       H  0.55354518  0.47159368  0.82600554     0.82400
H1460       H  0.57932342  0.64054253  0.77075349     0.80000
H1461       H  0.37301360  0.37424131  0.69556695     0.43000
H1462       H  0.38936315  0.33931760  0.78618942     0.42000
H1463       H  0.45970884  0.44660840  0.86658238     0.41700
H1464       H  0.56024304  0.53575959  0.87042283     0.39600
H1465       H  0.67408293  0.65973124  0.83136395     0.42700
H1466       H  0.66356228  0.68701661  0.73794620     0.37500
H1467       H  0.59335909  0.58083192  0.66485261     0.43600
H1468       H  0.50940344  0.48214471  0.66274949     0.40100
H1469       H  0.61418149  0.58462340  0.87198928     0.45000
H1470       H  0.69695108  0.66299678  0.73038496     0.43700
H1471       H  0.45856630  0.43055525  0.65846919     0.43800
H1472       H  0.35771995  0.35309715  0.80732007     0.44200
O1473       O  0.40037551  0.93033750  0.70766519    -0.74700
O1474       O  0.40433839  0.86690899  0.73177991    -0.53600
C1475       C  0.38688659  0.88371502  0.71165380     0.79000
O1476       O  0.64549587  0.09699520  0.70309393    -0.59300
O1477       O  0.64305725  0.15880599  0.72981394    -0.52300
C1478       C  0.65986224  0.14367317  0.70845209     0.71100
O1479       O  0.56132674  0.92823240  0.70297661    -0.73800
O1480       O  0.49787851  0.86580906  0.73015983    -0.54400
C1481       C  0.52981825  0.88155454  0.70866498     0.77100
O1482       O  0.48108153  0.09628560  0.70902324    -0.59000
O1483       O  0.55037237  0.15825698  0.73281421    -0.52100
C1484       C  0.51535348  0.14267356  0.71298935     0.73700
Zr1485     Zr  0.45673126  0.01295695  0.72748054     2.54700
O1486       O  0.43619611  0.01406347  0.67596617    -0.79500
O1487       O  0.37906585  0.01053849  0.74237497    -0.93000
Zr1488     Zr  0.58577059  0.01208762  0.72032254     2.64700
O1489       O  0.57578363  0.00704316  0.66722633    -0.97900
O1490       O  0.66626447  0.01392094  0.71775724    -0.80000
O1491       O  0.49638923  0.96366851  0.72328681    -0.83300
O1492       O  0.54594375  0.06102780  0.72328297    -2.18000
O1493       O  0.49222614  0.09668284  0.82914419    -0.66700
O1494       O  0.55743371  0.15853802  0.80272144    -0.51300
C1495       C  0.52504710  0.14334572  0.82387259     0.72000
O1496       O  0.56490021  0.92664465  0.82498972    -0.59600
O1497       O  0.49641343  0.86455033  0.80097831    -0.51600
C1498       C  0.53029820  0.88017061  0.82131825     0.73800
O1499       O  0.65337946  0.09271491  0.82417300    -0.71000
O1500       O  0.64845499  0.15589909  0.80033423    -0.49700
C1501       C  0.66662983  0.13931626  0.82027759     0.75200
O1502       O  0.40659492  0.92702217  0.82901849    -0.66400
O1503       O  0.40777717  0.86482233  0.80208767    -0.53600
C1504       C  0.39154937  0.88025529  0.82361620     0.73600
Zr1505     Zr  0.46559709  0.01165529  0.81160305     2.77500
O1506       O  0.46574356  0.00793634  0.86495800    -0.97100
O1507       O  0.38619833  0.01215858  0.81074360    -0.77900
Zr1508     Zr  0.59481963  0.01034623  0.80457977     2.70100
O1509       O  0.62252926  0.01157096  0.85480983    -0.79200
O1510       O  0.66937219  0.00805222  0.78812025    -0.98300
Zr1511     Zr  0.47493326  0.91128069  0.76584792     2.21500
Zr1512     Zr  0.57675223  0.11218362  0.76629731     2.11100
O1513       O  0.55479278  0.05944028  0.80896028    -2.47000
O1514       O  0.50564680  0.96255112  0.80874421    -0.79000
O1515       O  0.48619764  0.06437293  0.76972687    -0.71200
O1516       O  0.56551445  0.95941239  0.76229785    -2.32100
O1517       O  0.43371807  0.96037089  0.76928445    -2.28300
O1518       O  0.61807569  0.06320372  0.76272675    -0.72900
H1519       H  0.55489448  0.08168985  0.70582672     0.79100
H1520       H  0.57994511  0.93765496  0.76113908     0.80200
H1521       H  0.56629985  0.07945858  0.82660062     0.82400
H1522       H  0.39738351  0.93885374  0.77033980     0.80000
H1523       H  0.66741132  0.00257342  0.69757927     0.43000
H1524       H  0.69824467  0.04084309  0.79453025     0.42000
H1525       H  0.59570795  0.01133141  0.86710141     0.41700
H1526       H  0.50191657  0.02602128  0.87058884     0.39600
H1527       H  0.37522806  0.00738302  0.83150503     0.42700
H1528       H  0.35160030  0.97731919  0.73541552     0.37500
H1529       H  0.46398030  0.01346694  0.66514540     0.43600
H1530       H  0.55840328  0.02612559  0.66253824     0.40100
H1531       H  0.45235920  0.02968229  0.87177738     0.45000
H1532       H  0.37695548  0.03551438  0.72950091     0.43700
H1533       H  0.61039074  0.02752788  0.65918713     0.43800
H1534       H  0.67077178  0.98268143  0.80099756     0.44200
O1535       O  0.94340840  0.38485986  0.82295483    -0.74700
O1536       O  0.87982038  0.38907554  0.79927207    -0.53600
C1537       C  0.89670744  0.37137915  0.81922816     0.79000
O1538       O  0.10914600  0.62936893  0.83049488    -0.59300
O1539       O  0.17145421  0.62881362  0.80315767    -0.52300
C1540       C  0.15604153  0.64486346  0.82477861     0.71100
O1541       O  0.93880238  0.54355234  0.83000724    -0.73800
O1542       O  0.87719766  0.47950518  0.80290852    -0.54400
C1543       C  0.89210972  0.51121429  0.82439804     0.77100
O1544       O  0.10842413  0.46513465  0.82162856    -0.59000
O1545       O  0.17077348  0.53576770  0.79902156    -0.52100
C1546       C  0.15474704  0.49983772  0.81825115     0.73700
Zr1547     Zr  0.02571993  0.44075810  0.80244931     2.54700
O1548       O  0.02735094  0.41309048  0.85234769    -0.79500
O1549       O  0.02412702  0.36456957  0.78531122    -0.93000
Zr1550     Zr  0.02404965  0.56891077  0.81354906     2.64700
O1551       O  0.01970161  0.55364357  0.86617056    -0.97900
O1552       O  0.02482183  0.64850433  0.81908179    -0.80000
O1553       O  0.97619928  0.47983393  0.80877116    -0.83300
O1554       O  0.07338847  0.52969719  0.80857681    -2.18000
O1555       O  0.11005243  0.48065306  0.70190637    -0.66700
O1556       O  0.17197854  0.54429937  0.72917038    -0.51300
C1557       C  0.15685580  0.51255136  0.70764734     0.72000
O1558       O  0.94211452  0.55665821  0.70916803    -0.59600
O1559       O  0.87924728  0.48765514  0.73262297    -0.51600
C1560       C  0.89565732  0.52240630  0.71272514     0.73800
O1561       O  0.10687248  0.64278279  0.70962710    -0.71000
O1562       O  0.16978946  0.63680163  0.73307963    -0.49700
C1563       C  0.15341670  0.65550364  0.71333148     0.75200
O1564       O  0.94000390  0.39536255  0.70210191    -0.66400
O1565       O  0.87785274  0.39603082  0.72941250    -0.53600
C1566       C  0.89322037  0.38003601  0.70778598     0.73600
Zr1567     Zr  0.02490219  0.45602984  0.71847857     2.77500
O1568       O  0.02028786  0.46942183  0.66614981    -0.97100
O1569       O  0.02547417  0.37752216  0.71089493    -0.77900
Zr1570     Zr  0.02467250  0.58463193  0.72975508     2.70100
O1571       O  0.02431207  0.61576621  0.68059984    -0.79200
O1572       O  0.02387382  0.65829577  0.74927288    -0.98300
Zr1573     Zr  0.92445549  0.46146472  0.76618347     2.21500
Zr1574     Zr  0.12550988  0.56347578  0.76603816     2.11100
O1575       O  0.07346428  0.54470262  0.72343950    -2.47000
O1576       O  0.97599222  0.49577027  0.72361004    -0.79000
O1577       O  0.07721630  0.47327771  0.76036668    -0.71200
O1578       O  0.97240270  0.55174222  0.77148125    -2.32100
O1579       O  0.97364498  0.42063855  0.76062569    -2.28300
O1580       O  0.07644048  0.60440405  0.77171537    -0.72900
H1581       H  0.09384636  0.53792361  0.82599925     0.79100
H1582       H  0.95053299  0.56597036  0.77318697     0.80200
H1583       H  0.09386840  0.55696436  0.70600572     0.82400
H1584       H  0.95225311  0.38441006  0.75885829     0.80000
H1585       H  0.02995771  0.65586949  0.84035493     0.43000
H1586       H  0.05922383  0.68631869  0.74710718     0.42000
H1587       H  0.02487079  0.59046901  0.66729642     0.41700
H1588       H  0.04134174  0.50637833  0.66314144     0.39600
H1589       H  0.01560756  0.36879826  0.69009151     0.42700
H1590       H  0.99082183  0.33652458  0.79177283     0.37500
H1591       H  0.02648758  0.43896755  0.86498079     0.43600
H1592       H  0.04064701  0.53782258  0.86963169     0.40100
H1593       H  0.03899538  0.45475365  0.65651237     0.45000
H1594       H  0.04891907  0.36167833  0.79795960     0.43700
H1595       H  0.03863622  0.58755711  0.87525164     0.43800
H1596       H  0.00454665  0.66574144  0.73463091     0.44200
loop_ 
_geom_bond_atom_site_label_1 
_geom_bond_atom_site_label_2 
_geom_bond_distance 
_geom_bond_site_symmetry_2 
_ccdc_geom_bond_type 
N1            C6   1.350       .  A
N1            C5   1.350       .  A
N1           H33   1.041       .  S
N2            C9   1.355       .  A
N2           C10   1.349       .  A
N3            C8   1.355       .  A
N3            C7   1.354       .  A
N3           H34   1.043       .  S
N4           C11   1.353       .  A
N4           C12   1.350       .  A
C5           C13   1.387       .  A
C5           C21   1.410       .  A
C6           C22   1.411       .  A
C6           C14   1.387       .  A
C7           C15   1.383       .  A
C7           C24   1.412       .  A
C8           C23   1.412       .  A
C8           C16   1.382       .  A
C9           C21   1.412       .  A
C9           C17   1.383       .  A
C10          C24   1.417       .  A
C10          C18   1.387       .  A
C11          C19   1.383       .  A
C11          C22   1.410       .  A
C12          C20   1.386       .  A
C12          C23   1.416       .  A
C13          C14   1.376       .  A
C13          H25   1.082       .  S
C14          H26   1.082       .  S
C15          C16   1.380       .  A
C15          H27   1.079       .  S
C16          H28   1.079       .  S
C17          C18   1.372       .  A
C17          H29   1.082       .  S
C18          H30   1.078       .  S
C19          C20   1.371       .  A
C19          H31   1.082       .  S
C20          H32   1.075       .  S
C21         C601   1.498       .  S
C22         C160   1.494       .  S
C23         C683   1.492       .  S
C24         C615   1.489       .  S
N35          C40   1.349       .  A
N35          C39   1.350       .  A
N35          H67   1.040       .  S
N36          C43   1.353       .  A
N36          C44   1.349       .  A
N37          C42   1.357       .  A
N37          C41   1.357       .  A
N37          H68   1.039       .  S
N38          C45   1.354       .  A
N38          C46   1.350       .  A
C39          C47   1.387       .  A
C39          C55   1.411       .  A
C40          C56   1.411       .  A
C40          C48   1.387       .  A
C41          C49   1.383       .  A
C41          C58   1.422       .  A
C42          C57   1.422       .  A
C42          C50   1.383       .  A
C43          C55   1.409       .  A
C43          C51   1.383       .  A
C44          C58   1.416       .  A
C44          C52   1.386       .  A
C45          C53   1.383       .  A
C45          C56   1.411       .  A
C46          C54   1.387       .  A
C46          C57   1.419       .  A
C47          C48   1.376       .  A
C47          H59   1.082       .  S
C48          H60   1.082       .  S
C49          C50   1.377       .  A
C49          H61   1.077       .  S
C50          H62   1.075       .  S
C51          C52   1.370       .  A
C51          H63   1.082       .  S
C52          H64   1.076       .  S
C53          C54   1.370       .  A
C53          H65   1.082       .  S
C54          H66   1.077       .  S
C55         C602   1.495       .  S
C56         C159   1.495       .  S
C57         C700   1.498       .  S
C58         C644   1.496       .  S
N69          C74   1.350       .  A
N69          C73   1.350       .  A
N69         H101   1.041       .  S
N70          C77   1.354       .  A
N70          C78   1.349       .  A
N71          C76   1.353       .  A
N71          C75   1.352       .  A
N71         H102   1.043       .  S
N72          C79   1.352       .  A
N72          C80   1.349       .  A
C73          C81   1.387       .  A
C73          C89   1.412       .  A
C74          C90   1.412       .  A
C74          C82   1.387       .  A
C75          C83   1.383       .  A
C75          C92   1.409       .  A
C76          C91   1.409       .  A
C76          C84   1.383       .  A
C77          C89   1.411       .  A
C77          C85   1.383       .  A
C78          C92   1.416       .  A
C78          C86   1.387       .  A
C79          C87   1.384       .  A
C79          C90   1.410       .  A
C80          C88   1.387       .  A
C80          C91   1.414       .  A
C81          C82   1.376       .  A
C81          H93   1.082       .  S
C82          H94   1.082       .  S
C83          C84   1.378       .  A
C83          H95   1.080       .  S
C84          H96   1.080       .  S
C85          C86   1.371       .  A
C85          H97   1.082       .  S
C86          H98   1.077       .  S
C87          C88   1.370       .  A
C87          H99   1.082       .  S
C88         H100   1.079       .  S
C89         C158   1.497       .  S
C90         C498   1.495       .  S
C91         C739   1.483       .  S
C92         C703   1.484       .  S
N103        C108   1.350       .  A
N103        C107   1.349       .  A
N103        H135   1.041       .  S
N104        C111   1.354       .  A
N104        C112   1.349       .  A
N105        C110   1.356       .  A
N105        C109   1.355       .  A
N105        H136   1.039       .  S
N106        C113   1.355       .  A
N106        C114   1.350       .  A
C107        C115   1.387       .  A
C107        C123   1.411       .  A
C108        C124   1.411       .  A
C108        C116   1.386       .  A
C109        C117   1.384       .  A
C109        C126   1.419       .  A
C110        C125   1.420       .  A
C110        C118   1.384       .  A
C111        C123   1.410       .  A
C111        C119   1.382       .  A
C112        C126   1.417       .  A
C112        C120   1.385       .  A
C113        C121   1.382       .  A
C113        C124   1.409       .  A
C114        C122   1.385       .  A
C114        C125   1.418       .  A
C115        C116   1.378       .  A
C115        H127   1.082       .  S
C116        H128   1.082       .  S
C117        C118   1.379       .  A
C117        H129   1.077       .  S
C118        H130   1.077       .  S
C119        C120   1.370       .  A
C119        H131   1.082       .  S
C120        H132   1.076       .  S
C121        C122   1.369       .  A
C121        H133   1.082       .  S
C122        H134   1.075       .  S
C123        C157   1.495       .  S
C124        C499   1.497       .  S
C125        C768   1.497       .  S
C126        C680   1.495       .  S
N137        C141   1.352       .  A
N137        C940   1.353   1_554  A
N137        H169   1.040       .  S
N138        C145   1.350       .  A
N138        C146   1.350   1_545  A
N139        C143   1.352       .  A
N139        C942   1.352   1_554  A
N139        H170   1.040       .  S
N140        C147   1.350       .  A
N140        C148   1.350   1_545  A
C141        C149   1.387       .  A
C141        C157   1.414       .  A
C142        N935   1.352       .  A
C142        C158   1.414       .  A
C142        C948   1.387       .  A
C143        C151   1.387       .  A
C143        C160   1.413       .  A
C144        N937   1.351       .  A
C144        C159   1.413       .  A
C144        C950   1.387       .  A
C145        C157   1.413       .  A
C145        C153   1.387       .  A
C146        C160   1.413       .  A
C146        C154   1.387       .  A
C147        C155   1.386       .  A
C147        C158   1.414       .  A
C148        C156   1.386       .  A
C148        C159   1.413       .  A
C149        C150   1.376       .  A
C149        H161   1.082       .  S
C150        C940   1.387   1_554  A
C150        H960   1.082   1_554  S
C151        C152   1.376       .  A
C151        H163   1.082       .  S
C152        C942   1.387   1_554  A
C152        H962   1.082   1_554  S
C153        C154   1.377   1_545  A
C153        H165   1.082       .  S
C154        H166   1.082       .  S
C155        C156   1.377   1_545  A
C155        H167   1.082       .  S
C156        H168   1.082       .  S
H162        C948   1.082       .  S
H164        C950   1.082       .  S
N171        C176   1.350       .  A
N171        C175   1.349       .  A
N171        H203   1.040       .  S
N172        C179   1.354       .  A
N172        C180   1.350       .  A
N173        C178   1.357       .  A
N173        C177   1.358       .  A
N173        H204   1.040       .  S
N174        C181   1.355       .  A
N174        C182   1.350       .  A
C175        C183   1.387       .  A
C175        C191   1.411       .  A
C176        C192   1.412       .  A
C176        C184   1.387       .  A
C177        C185   1.383       .  A
C177        C194   1.421       .  A
C178        C193   1.423       .  A
C178        C186   1.385       .  A
C179        C191   1.410       .  A
C179        C187   1.383       .  A
C180        C194   1.417       .  A
C180        C188   1.385       .  A
C181        C189   1.381       .  A
C181        C192   1.411       .  A
C182        C190   1.386       .  A
C182        C193   1.420       .  A
C183        C184   1.377       .  A
C183        H195   1.082       .  S
C184        H196   1.082       .  S
C185        C186   1.379       .  A
C185        H197   1.077       .  S
C186        H198   1.077       .  S
C187        C188   1.371       .  A
C187        H199   1.082       .  S
C188        H200   1.076       .  S
C189        C190   1.369       .  A
C189        H201   1.082       .  S
C190        H202   1.075       .  S
C191        C599   1.496       .  S
C192        C568   1.497       .  S
C193        C745   1.499       .  S
C194        C635   1.501       .  S
N205        C210   1.351       .  A
N205        C209   1.349       .  A
N205        H237   1.041       .  S
N206        C213   1.353       .  A
N206        C214   1.350       .  A
N207        C212   1.352       .  A
N207        C211   1.352       .  A
N207        H238   1.043       .  S
N208        C215   1.353       .  A
N208        C216   1.349       .  A
C209        C217   1.388       .  A
C209        C225   1.411       .  A
C210        C226   1.411       .  A
C210        C218   1.387       .  A
C211        C219   1.384       .  A
C211        C228   1.409       .  A
C212        C227   1.408       .  A
C212        C220   1.383       .  A
C213        C225   1.411       .  A
C213        C221   1.384       .  A
C214        C228   1.416       .  A
C214        C222   1.387       .  A
C215        C223   1.383       .  A
C215        C226   1.410       .  A
C216        C224   1.387       .  A
C216        C227   1.415       .  A
C217        C218   1.375       .  A
C217        H229   1.082       .  S
C218        H230   1.082       .  S
C219        C220   1.377       .  A
C219        H231   1.080       .  S
C220        H232   1.080       .  S
C221        C222   1.370       .  A
C221        H233   1.082       .  S
C222        H234   1.079       .  S
C223        C224   1.370       .  A
C223        H235   1.082       .  S
C224        H236   1.077       .  S
C225        C567   1.492       .  S
C226        C600   1.497       .  S
C227        C624   1.483       .  S
C228        C762   1.483       .  S
N239        C244   1.349       .  A
N239        C243   1.349       .  A
N239        H271   1.041       .  S
N240        C247   1.353       .  A
N240        C248   1.348       .  A
N241        C246   1.352       .  A
N241        C245   1.351       .  A
N241        H272   1.043       .  S
N242        C249   1.354       .  A
N242        C250   1.351       .  A
C243        C251   1.388       .  A
C243        C259   1.411       .  A
C244        C260   1.410       .  A
C244        C252   1.387       .  A
C245        C253   1.383       .  A
C245        C262   1.407       .  A
C246        C261   1.406       .  A
C246        C254   1.383       .  A
C247        C259   1.410       .  A
C247        C255   1.383       .  A
C248        C262   1.414       .  A
C248        C256   1.386       .  A
C249        C257   1.383       .  A
C249        C260   1.413       .  A
C250        C258   1.386       .  A
C250        C261   1.416       .  A
C251        C252   1.376       .  A
C251        H263   1.082       .  S
C252        H264   1.082       .  S
C253        C254   1.377       .  A
C253        H265   1.080       .  S
C254        H266   1.080       .  S
C255        C256   1.370       .  A
C255        H267   1.082       .  S
C256        H268   1.077       .  S
C257        C258   1.371       .  A
C257        H269   1.082       .  S
C258        H270   1.077       .  S
C259        C532   1.494       .  S
C260        C566   1.496       .  S
C261        C765   1.484       .  S
C262        C677   1.479       .  S
N273        C278   1.348       .  A
N273        C277   1.349       .  A
N273        H305   1.041       .  S
N274        C281   1.354       .  A
N274        C282   1.349       .  A
N275        C280   1.356       .  A
N275        C279   1.356       .  A
N275        H306   1.040       .  S
N276        C283   1.354       .  A
N276        C284   1.350       .  A
C277        C285   1.387       .  A
C277        C293   1.410       .  A
C278        C294   1.410       .  A
C278        C286   1.387       .  A
C279        C287   1.384       .  A
C279        C296   1.421       .  A
C280        C295   1.420       .  A
C280        C288   1.383       .  A
C281        C293   1.409       .  A
C281        C289   1.382       .  A
C282        C296   1.416       .  A
C282        C290   1.385       .  A
C283        C291   1.382       .  A
C283        C294   1.410       .  A
C284        C292   1.386       .  A
C284        C295   1.418       .  A
C285        C286   1.378       .  A
C285        H297   1.082       .  S
C286        H298   1.082       .  S
C287        C288   1.379       .  A
C287        H299   1.077       .  S
C288        H300   1.076       .  S
C289        C290   1.371       .  A
C289        H301   1.082       .  S
C290        H302   1.076       .  S
C291        C292   1.370       .  A
C291        H303   1.082       .  S
C292        H304   1.076       .  S
C293        C565   1.494       .  S
C294        C531   1.494       .  S
C295        C706   1.496       .  S
C296        C742   1.499       .  S
N307        C312   1.348       .  A
N307        C311   1.351       .  A
N307        H339   1.041       .  S
N308        C315   1.355       .  A
N308        C316   1.349       .  A
N309        C314   1.353       .  A
N309        C313   1.352       .  A
N309        H340   1.043       .  S
N310        C317   1.354       .  A
N310        C318   1.351       .  A
C311        C319   1.387       .  A
C311        C327   1.412       .  A
C312        C328   1.411       .  A
C312        C320   1.388       .  A
C313        C321   1.383       .  A
C313        C330   1.411       .  A
C314        C329   1.410       .  A
C314        C322   1.383       .  A
C315        C327   1.410       .  A
C315        C323   1.382       .  A
C316        C330   1.415       .  A
C316        C324   1.385       .  A
C317        C325   1.383       .  A
C317        C328   1.412       .  A
C318        C326   1.385       .  A
C318        C329   1.417       .  A
C319        C320   1.377       .  A
C319        H331   1.082       .  S
C320        H332   1.082       .  S
C321        C322   1.382       .  A
C321        H333   1.080       .  S
C322        H334   1.080       .  S
C323        C324   1.372       .  A
C323        H335   1.082       .  S
C324        H336   1.076       .  S
C325        C326   1.371       .  A
C325        H337   1.082       .  S
C326        H338   1.076       .  S
C327        C396   1.501       .  S
C328        C533   1.496       .  S
C329        C686   1.489       .  S
C330        C618   1.488       .  S
N341        C346   1.349       .  A
N341        C345   1.350       .  A
N341        H373   1.040       .  S
N342        C349   1.354       .  A
N342        C350   1.350       .  A
N343        C348   1.354       .  A
N343        C347   1.355       .  A
N343        H374   1.038       .  S
N344        C351   1.356       .  A
N344        C352   1.352       .  A
C345        C353   1.387       .  A
C345        C361   1.410       .  A
C346        C362   1.410       .  A
C346        C354   1.387       .  A
C347        C355   1.384       .  A
C347        C364   1.419       .  A
C348        C363   1.418       .  A
C348        C356   1.383       .  A
C349        C361   1.410       .  A
C349        C357   1.382       .  A
C350        C364   1.417       .  A
C350        C358   1.384       .  A
C351        C359   1.382       .  A
C351        C362   1.414       .  A
C352        C360   1.387       .  A
C352        C363   1.422       .  A
C353        C354   1.375       .  A
C353        H365   1.082       .  S
C354        H366   1.082       .  S
C355        C356   1.377       .  A
C355        H367   1.077       .  S
C356        H368   1.076       .  S
C357        C358   1.370       .  A
C357        H369   1.082       .  S
C358        H370   1.076       .  S
C359        C360   1.370       .  A
C359        H371   1.082       .  S
C360        H372   1.077       .  S
C361        C534   1.495       .  S
C362        C395   1.499       .  S
C363        C641   1.493       .  S
C364        C697   1.494       .  S
N375        C380   1.353       .  A
N375       C1177   1.353   1_554  A
N375        H407   1.040       .  S
N376        C383   1.350       .  A
N376        C384   1.351       .  A
N377        C382   1.352       .  A
N377       C1179   1.353   1_554  A
N377        H408   1.040       .  S
N378        C385   1.353       .  A
N378        C386   1.353       .  A
C379       N1173   1.353       .  A
C379        C395   1.417       .  A
C379       C1185   1.387       .  A
C380        C396   1.416       .  A
C380        C388   1.387       .  A
C381       N1175   1.353       .  A
C381        C398   1.414       .  A
C381       C1187   1.387       .  A
C382        C397   1.415       .  A
C382        C390   1.387       .  A
C383        C395   1.414       .  A
C383        C391   1.386       .  A
C384        C398   1.413       .  A
C384        C392   1.386       .  A
C385        C393   1.386       .  A
C385        C396   1.417       .  A
C386        C394   1.386       .  A
C386        C397   1.417       .  A
C387        C388   1.377   1_556  A
C387       C1177   1.387       .  A
C387       H1197   1.082       .  S
C388        H400   1.082       .  S
C389        C390   1.376       .  A
C389       C1179   1.387   1_554  A
C389       H1199   1.082   1_554  S
C390        H402   1.082       .  S
C391        C392   1.376       .  A
C391        H403   1.082       .  S
C392        H404   1.082       .  S
C393        C394   1.377       .  A
C393        H405   1.082       .  S
C394        H406   1.082       .  S
C397        C463   1.500       .  S
C398        C430   1.498       .  S
H399       C1185   1.082       .  S
H401       C1187   1.082       .  S
N409        C414   1.350       .  A
N409        C413   1.349       .  A
N409        H441   1.041       .  S
N410        C417   1.354       .  A
N410        C418   1.351       .  A
N411        C416   1.352       .  A
N411        C415   1.353       .  A
N411        H442   1.043       .  S
N412        C419   1.354       .  A
N412        C420   1.350       .  A
C413        C421   1.387       .  A
C413        C429   1.410       .  A
C414        C430   1.411       .  A
C414        C422   1.387       .  A
C415        C423   1.383       .  A
C415        C432   1.410       .  A
C416        C431   1.410       .  A
C416        C424   1.384       .  A
C417        C429   1.412       .  A
C417        C425   1.383       .  A
C418        C432   1.418       .  A
C418        C426   1.386       .  A
C419        C427   1.383       .  A
C419        C430   1.412       .  A
C420        C428   1.387       .  A
C420        C431   1.416       .  A
C421        C422   1.375       .  A
C421        H433   1.082       .  S
C422        H434   1.082       .  S
C423        C424   1.379       .  A
C423        H435   1.080       .  S
C424        H436   1.080       .  S
C425        C426   1.371       .  A
C425        H437   1.082       .  S
C426        H438   1.076       .  S
C427        C428   1.372       .  A
C427        H439   1.082       .  S
C428        H440   1.078       .  S
C429        C497   1.496       .  S
C431        C638   1.485       .  S
C432        C748   1.487       .  S
N443        C448   1.350       .  A
N443        C447   1.351       .  A
N443        H475   1.040       .  S
N444        C451   1.356       .  A
N444        C452   1.350       .  A
N445        C450   1.357       .  A
N445        C449   1.356       .  A
N445        H476   1.039       .  S
N446        C453   1.354       .  A
N446        C454   1.351       .  A
C447        C455   1.387       .  A
C447        C463   1.413       .  A
C448        C464   1.413       .  A
C448        C456   1.387       .  A
C449        C457   1.384       .  A
C449        C466   1.422       .  A
C450        C465   1.423       .  A
C450        C458   1.384       .  A
C451        C463   1.411       .  A
C451        C459   1.382       .  A
C452        C466   1.419       .  A
C452        C460   1.386       .  A
C453        C461   1.383       .  A
C453        C464   1.411       .  A
C454        C462   1.385       .  A
C454        C465   1.418       .  A
C455        C456   1.378       .  A
C455        H467   1.082       .  S
C456        H468   1.082       .  S
C457        C458   1.380       .  A
C457        H469   1.077       .  S
C458        H470   1.077       .  S
C459        C460   1.370       .  A
C459        H471   1.082       .  S
C460        H472   1.076       .  S
C461        C462   1.371       .  A
C461        H473   1.082       .  S
C462        H474   1.077       .  S
C464        C500   1.496       .  S
C465        C759   1.502       .  S
C466        C621   1.497       .  S
N477        C482   1.352   1_455  A
N477        C481   1.352       .  A
N477        H509   1.041       .  S
N478        C486   1.350       .  A
N478       C1283   1.351   1_554  A
N479        C484   1.354   1_455  A
N479        C483   1.353       .  A
N479        H510   1.041       .  S
N480        C488   1.350       .  A
N480       C1285   1.349   1_554  A
C481        C489   1.387       .  A
C481        C497   1.415       .  A
C482        C498   1.415       .  A
C482        C490   1.387       .  A
C483        C491   1.387       .  A
C483        C500   1.417       .  A
C484        C499   1.416       .  A
C484        C492   1.386       .  A
C485       N1276   1.350       .  A
C485        C497   1.412       .  A
C485       C1291   1.386       .  A
C486        C500   1.412       .  A
C486        C494   1.387       .  A
C487       N1278   1.349       .  A
C487        C498   1.411       .  A
C487       C1293   1.387       .  A
C488        C496   1.386       .  A
C488        C499   1.411       .  A
C489        C490   1.378   1_455  A
C489        H501   1.082       .  S
C490        H502   1.082       .  S
C491        C492   1.380   1_455  A
C491        H503   1.082       .  S
C492        H504   1.082       .  S
C493        C494   1.373       .  A
C493       C1283   1.386   1_554  A
C493       H1303   1.082   1_554  S
C494        H506   1.082       .  S
C495        C496   1.373       .  A
C495       C1285   1.387   1_554  A
C495       H1305   1.082   1_554  S
C496        H508   1.082       .  S
H505       C1291   1.082       .  S
H507       C1293   1.082       .  S
N511        C516   1.351       .  A
N511       C1313   1.351   1_554  A
N511        H543   1.040       .  S
N512        C519   1.350   1_545  A
N512        C520   1.350       .  A
N513        C518   1.352       .  A
N513       C1315   1.352   1_554  A
N513        H544   1.039       .  S
N514        C521   1.350   1_545  A
N514        C522   1.350       .  A
C515       N1309   1.351       .  A
C515        C531   1.413       .  A
C515       C1321   1.387       .  A
C516        C532   1.412       .  A
C516        C524   1.387       .  A
C517       N1311   1.352       .  A
C517        C534   1.415       .  A
C517       C1323   1.387       .  A
C518        C533   1.415       .  A
C518        C526   1.387       .  A
C519        C531   1.412       .  A
C519        C527   1.386       .  A
C520        C534   1.413       .  A
C520        C528   1.386       .  A
C521        C529   1.386       .  A
C521        C532   1.412       .  A
C522        C530   1.386       .  A
C522        C533   1.413       .  A
C523        C524   1.376       .  A
C523       C1313   1.387   1_554  A
C523       H1333   1.082   1_554  S
C524        H536   1.082       .  S
C525        C526   1.376       .  A
C525       C1315   1.387   1_554  A
C525       H1335   1.082   1_554  S
C526        H538   1.082       .  S
C527        C528   1.375   1_565  A
C527        H539   1.082       .  S
C528        H540   1.082       .  S
C529        C530   1.375   1_565  A
C529        H541   1.082       .  S
C530        H542   1.082       .  S
H535       C1321   1.082       .  S
H537       C1323   1.082       .  S
N545        C550   1.352       .  A
N545       C1347   1.351   1_554  A
N545        H577   1.040       .  S
N546        C553   1.351       .  A
N546        C554   1.351   1_455  A
N547        C552   1.351       .  A
N547       C1349   1.352   1_554  A
N547        H578   1.040       .  S
N548        C555   1.349       .  A
N548        C556   1.349   1_455  A
C549       N1343   1.351       .  A
C549        C565   1.414       .  A
C549       C1355   1.387       .  A
C550        C566   1.413       .  A
C550        C558   1.386       .  A
C551       N1345   1.351       .  A
C551        C568   1.413       .  A
C551       C1357   1.387       .  A
C552        C567   1.412       .  A
C552        C560   1.387       .  A
C553        C565   1.414       .  A
C553        C561   1.386       .  A
C554        C568   1.414       .  A
C554        C562   1.386       .  A
C555        C563   1.386       .  A
C555        C566   1.410       .  A
C556        C564   1.386       .  A
C556        C567   1.411       .  A
C557        C558   1.376       .  A
C557       C1347   1.387   1_554  A
C557       H1367   1.082   1_554  S
C558        H570   1.082       .  S
C559        C560   1.376       .  A
C559       C1349   1.387   1_554  A
C559       H1369   1.082   1_554  S
C560        H572   1.082       .  S
C561        C562   1.377   1_455  A
C561        H573   1.082       .  S
C562        H574   1.082       .  S
C563        C564   1.375   1_455  A
C563        H575   1.082       .  S
C564        H576   1.082       .  S
H569       C1355   1.082       .  S
H571       C1357   1.082       .  S
N579        C584   1.352       .  A
N579       C1381   1.351   1_554  A
N579        H611   1.040       .  S
N580        C587   1.351       .  A
N580        C588   1.350       .  A
N581        C586   1.353       .  A
N581       C1383   1.352   1_554  A
N581        H612   1.040       .  S
N582        C589   1.350       .  A
N582        C590   1.351       .  A
C583       N1377   1.352       .  A
C583        C599   1.413       .  A
C583       C1389   1.387       .  A
C584        C600   1.413       .  A
C584        C592   1.387       .  A
C585       N1379   1.352       .  A
C585        C602   1.414       .  A
C585       C1391   1.387       .  A
C586        C601   1.415       .  A
C586        C594   1.387       .  A
C587        C599   1.413       .  A
C587        C595   1.386       .  A
C588        C602   1.414       .  A
C588        C596   1.386       .  A
C589        C597   1.386       .  A
C589        C600   1.413       .  A
C590        C598   1.386       .  A
C590        C601   1.413       .  A
C591        C592   1.376       .  A
C591       C1381   1.387   1_554  A
C591       H1401   1.082   1_554  S
C592        H604   1.082       .  S
C593        C594   1.375       .  A
C593       C1383   1.387   1_554  A
C593       H1403   1.082   1_554  S
C594        H606   1.082       .  S
C595        C596   1.377       .  A
C595        H607   1.082       .  S
C596        H608   1.082       .  S
C597        C598   1.376       .  A
C597        H609   1.082       .  S
C598        H610   1.082       .  S
H603       C1389   1.082       .  S
H605       C1391   1.082       .  S
O613       Zr625   2.413       .  S
O613        C615   1.283       .  A
O614       Zr651   2.460       .  S
O614        C615   1.293       .  A
O616       Zr628   2.421       .  S
O616        C618   1.286       .  A
O617       Zr652   2.456       .  S
O617        C618   1.293       .  A
O619       Zr628   2.427       .  S
O619        C621   1.288       .  A
O620       Zr651   2.449       .  S
O620        C621   1.290       .  A
O622       Zr625   2.414       .  S
O622        C624   1.284       .  A
O623       Zr652   2.455       .  S
O623        C624   1.292       .  A
Zr625       O626   2.435       .  S
Zr625       O627   2.433       .  S
Zr625       O631   2.369       .  S
Zr625       O632   2.371       .  S
Zr625       O655   2.363       .  S
Zr625       O657   2.362       .  S
O626        H669   0.990       .  S
O627        H668   0.990       .  S
O627        H672   0.990       .  S
Zr628       O629   2.435       .  S
Zr628       O630   2.433       .  S
Zr628       O632   2.364       .  S
Zr628       O631   2.362       .  S
Zr628       O656   2.363       .  S
Zr628       O658   2.372       .  S
O629        H670   0.989       .  S
O629        H673   0.990       .  S
O630        H663   0.990       .  S
O631       Zr651   2.383       .  S
O632       Zr652   2.393       .  S
O632        H659   0.965       .  S
O633       Zr645   2.444       .  S
O633        C635   1.290       .  A
O634       Zr652   2.451       .  S
O634        C635   1.291       .  A
O636       Zr648   2.412       .  S
O636        C638   1.283       .  A
O637       Zr651   2.452       .  S
O637        C638   1.292       .  A
O639       Zr648   2.427       .  S
O639        C641   1.286       .  A
O640       Zr652   2.451       .  S
O640        C641   1.291       .  A
O642       Zr645   2.434       .  S
O642        C644   1.289       .  A
O643       Zr651   2.442       .  S
O643        C644   1.289       .  A
Zr645       O646   2.435       .  S
Zr645       O647   2.433       .  S
Zr645       O653   2.365       .  S
Zr645       O654   2.369       .  S
Zr645       O657   2.367       .  S
Zr645       O655   2.370       .  S
O646        H666   0.989       .  S
O646        H671   0.990       .  S
O647        H667   0.990       .  S
Zr648       O649   2.433       .  S
Zr648       O650   2.435       .  S
Zr648       O654   2.372       .  S
Zr648       O653   2.366       .  S
Zr648       O658   2.355       .  S
Zr648       O656   2.364       .  S
O649        H665   0.990       .  S
O650        H664   0.990       .  S
O650        H674   0.990       .  S
Zr651       O654   2.388       .  S
Zr651       O656   2.399       .  S
Zr651       O657   2.400       .  S
Zr652       O653   2.392       .  S
Zr652       O655   2.400       .  S
Zr652       O658   2.397       .  S
O653        H661   0.964       .  S
O656        H660   0.966       .  S
O657        H662   0.966       .  S
O675       Zr687   2.407   1_565  S
O675        C677   1.282       .  A
O676       Zr713   2.445       .  S
O676        C677   1.290       .  A
O678       Zr690   2.434       .  S
O678        C680   1.288       .  A
O679       Zr714   2.446       .  S
O679        C680   1.290       .  A
O681       Zr690   2.417   1_565  S
O681        C683   1.285       .  A
O682       Zr713   2.462       .  S
O682        C683   1.293       .  A
O684       Zr687   2.415       .  S
O684        C686   1.284       .  A
O685       Zr714   2.467       .  S
O685        C686   1.294       .  A
Zr687       O688   2.435       .  S
Zr687       O689   2.435       .  S
Zr687       O693   2.368   1_545  S
Zr687       O694   2.367       .  S
Zr687       O717   2.361       .  S
Zr687       O719   2.362   1_545  S
O688        H731   0.990       .  S
O689        H730   0.990   1_545  S
O689        H734   0.990       .  S
Zr690       O691   2.435       .  S
Zr690       O692   2.434       .  S
Zr690       O694   2.365       .  S
Zr690       O693   2.369   1_545  S
Zr690       O718   2.370   1_545  S
Zr690       O720   2.365       .  S
O691        H732   0.989       .  S
O691        H735   0.990       .  S
O692        H725   0.990       .  S
O693       Zr713   2.386       .  S
O694       Zr714   2.390       .  S
O694        H721   0.965       .  S
O695       Zr707   2.436       .  S
O695        C697   1.288       .  A
O696       Zr714   2.441       .  S
O696        C697   1.289       .  A
O698       Zr710   2.430   1_565  S
O698        C700   1.287       .  A
O699       Zr713   2.449       .  S
O699        C700   1.290       .  A
O701       Zr710   2.415       .  S
O701        C703   1.284       .  A
O702       Zr714   2.455       .  S
O702        C703   1.292       .  A
O704       Zr707   2.423   1_565  S
O704        C706   1.287       .  A
O705       Zr713   2.451       .  S
O705        C706   1.291       .  A
Zr707       O708   2.437       .  S
Zr707       O709   2.434       .  S
Zr707       O715   2.362       .  S
Zr707       O716   2.371   1_545  S
Zr707       O719   2.367   1_545  S
Zr707       O717   2.366       .  S
O708        H728   0.989       .  S
O708        H733   0.990       .  S
O709        H729   0.990       .  S
Zr710       O711   2.434       .  S
Zr710       O712   2.434       .  S
Zr710       O716   2.365   1_545  S
Zr710       O715   2.374       .  S
Zr710       O720   2.366       .  S
Zr710       O718   2.357   1_545  S
O711        H727   0.990       .  S
O712        H726   0.990       .  S
O712        H736   0.990   1_545  S
Zr713       O716   2.387       .  S
Zr713       O718   2.397       .  S
Zr713       O719   2.402       .  S
Zr714       O715   2.398       .  S
Zr714       O717   2.395       .  S
Zr714       O720   2.400       .  S
O715        H723   0.964       .  S
O718        H722   0.967       .  S
O719        H724   0.966       .  S
O737       Zr749   2.413   1_655  S
O737        C739   1.283       .  A
O738       Zr775   2.449       .  S
O738        C739   1.291       .  A
O740       Zr752   2.440       .  S
O740        C742   1.290       .  A
O741       Zr776   2.452       .  S
O741        C742   1.292       .  A
O743       Zr752   2.437   1_655  S
O743        C745   1.289       .  A
O744       Zr775   2.446       .  S
O744        C745   1.290       .  A
O746       Zr749   2.416       .  S
O746        C748   1.283       .  A
O747       Zr776   2.464       .  S
O747        C748   1.294       .  A
Zr749       O750   2.436       .  S
Zr749       O751   2.435       .  S
Zr749       O755   2.371   1_455  S
Zr749       O756   2.370       .  S
Zr749       O779   2.360       .  S
Zr749       O781   2.360   1_455  S
O750        H793   0.990       .  S
O751        H792   0.990       .  S
O751        H796   0.990       .  S
Zr752       O753   2.435       .  S
Zr752       O754   2.435       .  S
Zr752       O756   2.364       .  S
Zr752       O755   2.367   1_455  S
Zr752       O780   2.369   1_455  S
Zr752       O782   2.374       .  S
O753        H794   0.989       .  S
O753        H797   0.990       .  S
O754        H787   0.990       .  S
O755       Zr775   2.388       .  S
O756       Zr776   2.392       .  S
O756        H783   0.963       .  S
O757       Zr769   2.440       .  S
O757        C759   1.290       .  A
O758       Zr776   2.457       .  S
O758        C759   1.292       .  A
O760       Zr772   2.407   1_655  S
O760        C762   1.282       .  A
O761       Zr775   2.454       .  S
O761        C762   1.292       .  A
O763       Zr772   2.416       .  S
O763        C765   1.283       .  A
O764       Zr776   2.460       .  S
O764        C765   1.293       .  A
O766       Zr769   2.429   1_655  S
O766        C768   1.288       .  A
O767       Zr775   2.449       .  S
O767        C768   1.291       .  A
Zr769       O770   2.437       .  S
Zr769       O771   2.433       .  S
Zr769       O777   2.358       .  S
Zr769       O778   2.365   1_455  S
Zr769       O781   2.368   1_455  S
Zr769       O779   2.374       .  S
O770        H790   0.989       .  S
O770        H795   0.989       .  S
O771        H791   0.990       .  S
Zr772       O773   2.437       .  S
Zr772       O774   2.434       .  S
Zr772       O778   2.371   1_455  S
Zr772       O777   2.372       .  S
Zr772       O782   2.359       .  S
Zr772       O780   2.361   1_455  S
O773        H789   0.990       .  S
O774        H788   0.990       .  S
O774        H798   0.990       .  S
Zr775       O778   2.384       .  S
Zr775       O780   2.401       .  S
Zr775       O781   2.398       .  S
Zr776       O777   2.390       .  S
Zr776       O779   2.398       .  S
Zr776       O782   2.403       .  S
O777        H785   0.962       .  S
O780        H784   0.966       .  S
O781        H786   0.966       .  S
N799        C804   1.350       .  A
N799        C803   1.349       .  A
N799        H831   1.041       .  S
N800        C807   1.354       .  A
N800        C808   1.350       .  A
N801        C806   1.354       .  A
N801        C805   1.354       .  A
N801        H832   1.044       .  S
N802        C809   1.353       .  A
N802        C810   1.349       .  A
C803        C811   1.387       .  A
C803        C819   1.410       .  A
C804        C820   1.410       .  A
C804        C812   1.387       .  A
C805        C813   1.384       .  A
C805        C822   1.413       .  A
C806        C821   1.412       .  A
C806        C814   1.383       .  A
C807        C819   1.412       .  A
C807        C815   1.383       .  A
C808        C822   1.417       .  A
C808        C816   1.387       .  A
C809        C817   1.382       .  A
C809        C820   1.409       .  A
C810        C818   1.386       .  A
C810        C821   1.415       .  A
C811        C812   1.376       .  A
C811        H823   1.082       .  S
C812        H824   1.082       .  S
C813        C814   1.381       .  A
C813        H825   1.080       .  S
C814        H826   1.080       .  S
C815        C816   1.372       .  A
C815        H827   1.082       .  S
C816        H828   1.078       .  S
C817        C818   1.372       .  A
C817        H829   1.082       .  S
C818        H830   1.076       .  S
C819       C1399   1.496       .  S
C820        C958   1.494       .  S
C821       C1481   1.490       .  S
C822       C1413   1.490       .  S
N833        C838   1.349       .  A
N833        C837   1.350       .  A
N833        H865   1.040       .  S
N834        C841   1.353       .  A
N834        C842   1.349       .  A
N835        C840   1.356       .  A
N835        C839   1.357       .  A
N835        H866   1.039       .  S
N836        C843   1.355       .  A
N836        C844   1.350       .  A
C837        C845   1.387       .  A
C837        C853   1.410       .  A
C838        C854   1.409       .  A
C838        C846   1.387       .  A
C839        C847   1.384       .  A
C839        C856   1.421       .  A
C840        C855   1.421       .  A
C840        C848   1.383       .  A
C841        C853   1.409       .  A
C841        C849   1.382       .  A
C842        C856   1.416       .  A
C842        C850   1.386       .  A
C843        C851   1.383       .  A
C843        C854   1.412       .  A
C844        C852   1.387       .  A
C844        C855   1.420       .  A
C845        C846   1.375       .  A
C845        H857   1.082       .  S
C846        H858   1.082       .  S
C847        C848   1.377       .  A
C847        H859   1.077       .  S
C848        H860   1.076       .  S
C849        C850   1.370       .  A
C849        H861   1.082       .  S
C850        H862   1.076       .  S
C851        C852   1.370       .  A
C851        H863   1.082       .  S
C852        H864   1.078       .  S
C853       C1400   1.494       .  S
C854        C957   1.495       .  S
C855       C1498   1.495       .  S
C856       C1442   1.496       .  S
N867        C872   1.349       .  A
N867        C871   1.350       .  A
N867        H899   1.041       .  S
N868        C875   1.354       .  A
N868        C876   1.350       .  A
N869        C874   1.352       .  A
N869        C873   1.352       .  A
N869        H900   1.043       .  S
N870        C877   1.353       .  A
N870        C878   1.350       .  A
C871        C879   1.388       .  A
C871        C887   1.411       .  A
C872        C888   1.410       .  A
C872        C880   1.388       .  A
C873        C881   1.384       .  A
C873        C890   1.408       .  A
C874        C889   1.408       .  A
C874        C882   1.384       .  A
C875        C887   1.412       .  A
C875        C883   1.383       .  A
C876        C890   1.418       .  A
C876        C884   1.387       .  A
C877        C885   1.384       .  A
C877        C888   1.410       .  A
C878        C886   1.387       .  A
C878        C889   1.415       .  A
C879        C880   1.375       .  A
C879        H891   1.082       .  S
C880        H892   1.082       .  S
C881        C882   1.378       .  A
C881        H893   1.080       .  S
C882        H894   1.080       .  S
C883        C884   1.372       .  A
C883        H895   1.082       .  S
C884        H896   1.078       .  S
C885        C886   1.370       .  A
C885        H897   1.082       .  S
C886        H898   1.079       .  S
C887        C956   1.497       .  S
C888       C1296   1.493       .  S
C889       C1537   1.482       .  S
C890       C1501   1.484       .  S
N901        C906   1.349       .  A
N901        C905   1.348       .  A
N901        H933   1.041       .  S
N902        C909   1.355       .  A
N902        C910   1.350       .  A
N903        C908   1.355       .  A
N903        C907   1.355       .  A
N903        H934   1.040       .  S
N904        C911   1.355       .  A
N904        C912   1.350       .  A
C905        C913   1.387       .  A
C905        C921   1.409       .  A
C906        C922   1.409       .  A
C906        C914   1.387       .  A
C907        C915   1.384       .  A
C907        C924   1.418       .  A
C908        C923   1.419       .  A
C908        C916   1.384       .  A
C909        C921   1.410       .  A
C909        C917   1.382       .  A
C910        C924   1.417       .  A
C910        C918   1.384       .  A
C911        C919   1.382       .  A
C911        C922   1.409       .  A
C912        C920   1.385       .  A
C912        C923   1.418       .  A
C913        C914   1.378       .  A
C913        H925   1.082       .  S
C914        H926   1.082       .  S
C915        C916   1.379       .  A
C915        H927   1.077       .  S
C916        H928   1.077       .  S
C917        C918   1.370       .  A
C917        H929   1.082       .  S
C918        H930   1.075       .  S
C919        C920   1.369       .  A
C919        H931   1.082       .  S
C920        H932   1.075       .  S
C921        C955   1.494       .  S
C922       C1297   1.495       .  S
C923       C1566   1.495       .  S
C924       C1478   1.496       .  S
N935        C939   1.352       .  A
N935        H967   1.040       .  S
N936        C943   1.350       .  A
N936        C944   1.350   1_545  A
N937        C941   1.352       .  A
N937        H968   1.040       .  S
N938        C945   1.349       .  A
N938        C946   1.349   1_545  A
C939        C947   1.387       .  A
C939        C955   1.414       .  A
C940        C956   1.415       .  A
C941        C949   1.387       .  A
C941        C958   1.412       .  A
C942        C957   1.414       .  A
C943        C955   1.413       .  A
C943        C951   1.386       .  A
C944        C958   1.413       .  A
C944        C952   1.386       .  A
C945        C953   1.387       .  A
C945        C956   1.412       .  A
C946        C954   1.386       .  A
C946        C957   1.411       .  A
C947        C948   1.376       .  A
C947        H959   1.082       .  S
C949        C950   1.375       .  A
C949        H961   1.082       .  S
C951        C952   1.377   1_545  A
C951        H963   1.082       .  S
C952        H964   1.082       .  S
C953        C954   1.376   1_545  A
C953        H965   1.082       .  S
C954        H966   1.082       .  S
N969        C974   1.350       .  A
N969        C973   1.349       .  A
N969       H1001   1.040       .  S
N970        C977   1.354       .  A
N970        C978   1.350       .  A
N971        C976   1.356       .  A
N971        C975   1.357       .  A
N971       H1002   1.039       .  S
N972        C979   1.355       .  A
N972        C980   1.350       .  A
C973        C981   1.387       .  A
C973        C989   1.411       .  A
C974        C990   1.411       .  A
C974        C982   1.387       .  A
C975        C983   1.383       .  A
C975        C992   1.422       .  A
C976        C991   1.423       .  A
C976        C984   1.385       .  A
C977        C989   1.409       .  A
C977        C985   1.382       .  A
C978        C992   1.416       .  A
C978        C986   1.385       .  A
C979        C987   1.382       .  A
C979        C990   1.410       .  A
C980        C988   1.386       .  A
C980        C991   1.419       .  A
C981        C982   1.376       .  A
C981        H993   1.082       .  S
C982        H994   1.082       .  S
C983        C984   1.380       .  A
C983        H995   1.077       .  S
C984        H996   1.077       .  S
C985        C986   1.370       .  A
C985        H997   1.082       .  S
C986        H998   1.076       .  S
C987        C988   1.370       .  A
C987        H999   1.082       .  S
C988       H1000   1.075       .  S
C989       C1397   1.494       .  S
C990       C1366   1.496       .  S
C991       C1543   1.498       .  S
C992       C1433   1.499       .  S
N1003      C1008   1.350       .  A
N1003      C1007   1.349       .  A
N1003      H1035   1.041       .  S
N1004      C1011   1.353       .  A
N1004      C1012   1.350       .  A
N1005      C1010   1.353       .  A
N1005      C1009   1.352       .  A
N1005      H1036   1.043       .  S
N1006      C1013   1.354       .  A
N1006      C1014   1.349       .  A
C1007      C1015   1.388       .  A
C1007      C1023   1.411       .  A
C1008      C1024   1.411       .  A
C1008      C1016   1.387       .  A
C1009      C1017   1.384       .  A
C1009      C1026   1.409       .  A
C1010      C1025   1.408       .  A
C1010      C1018   1.383       .  A
C1011      C1023   1.411       .  A
C1011      C1019   1.384       .  A
C1012      C1026   1.416       .  A
C1012      C1020   1.387       .  A
C1013      C1021   1.383       .  A
C1013      C1024   1.410       .  A
C1014      C1022   1.387       .  A
C1014      C1025   1.415       .  A
C1015      C1016   1.375       .  A
C1015      H1027   1.082       .  S
C1016      H1028   1.082       .  S
C1017      C1018   1.378       .  A
C1017      H1029   1.080       .  S
C1018      H1030   1.080       .  S
C1019      C1020   1.371       .  A
C1019      H1031   1.082       .  S
C1020      H1032   1.079       .  S
C1021      C1022   1.370       .  A
C1021      H1033   1.082       .  S
C1022      H1034   1.077       .  S
C1023      C1365   1.494       .  S
C1024      C1398   1.497       .  S
C1025      C1422   1.484       .  S
C1026      C1560   1.482       .  S
N1037      C1042   1.349       .  A
N1037      C1041   1.350       .  A
N1037      H1069   1.041       .  S
N1038      C1045   1.353       .  A
N1038      C1046   1.349       .  A
N1039      C1044   1.352       .  A
N1039      C1043   1.350       .  A
N1039      H1070   1.043       .  S
N1040      C1047   1.353       .  A
N1040      C1048   1.350       .  A
C1041      C1049   1.387       .  A
C1041      C1057   1.410       .  A
C1042      C1058   1.410       .  A
C1042      C1050   1.387       .  A
C1043      C1051   1.384       .  A
C1043      C1060   1.407       .  A
C1044      C1059   1.407       .  A
C1044      C1052   1.383       .  A
C1045      C1057   1.410       .  A
C1045      C1053   1.383       .  A
C1046      C1060   1.414       .  A
C1046      C1054   1.387       .  A
C1047      C1055   1.383       .  A
C1047      C1058   1.412       .  A
C1048      C1056   1.386       .  A
C1048      C1059   1.416       .  A
C1049      C1050   1.376       .  A
C1049      H1061   1.082       .  S
C1050      H1062   1.082       .  S
C1051      C1052   1.378       .  A
C1051      H1063   1.080       .  S
C1052      H1064   1.080       .  S
C1053      C1054   1.370       .  A
C1053      H1065   1.082       .  S
C1054      H1066   1.078       .  S
C1055      C1056   1.371       .  A
C1055      H1067   1.082       .  S
C1056      H1068   1.077       .  S
C1057      C1330   1.495       .  S
C1058      C1364   1.495       .  S
C1059      C1563   1.484       .  S
C1060      C1475   1.478       .  S
N1071      C1076   1.349       .  A
N1071      C1075   1.349       .  A
N1071      H1103   1.040       .  S
N1072      C1079   1.353       .  A
N1072      C1080   1.350       .  A
N1073      C1078   1.356       .  A
N1073      C1077   1.357       .  A
N1073      H1104   1.040       .  S
N1074      C1081   1.355       .  A
N1074      C1082   1.350       .  A
C1075      C1083   1.387       .  A
C1075      C1091   1.411       .  A
C1076      C1092   1.410       .  A
C1076      C1084   1.387       .  A
C1077      C1085   1.384       .  A
C1077      C1094   1.421       .  A
C1078      C1093   1.421       .  A
C1078      C1086   1.384       .  A
C1079      C1091   1.409       .  A
C1079      C1087   1.382       .  A
C1080      C1094   1.416       .  A
C1080      C1088   1.385       .  A
C1081      C1089   1.382       .  A
C1081      C1092   1.410       .  A
C1082      C1090   1.386       .  A
C1082      C1093   1.419       .  A
C1083      C1084   1.378       .  A
C1083      H1095   1.082       .  S
C1084      H1096   1.082       .  S
C1085      C1086   1.379       .  A
C1085      H1097   1.077       .  S
C1086      H1098   1.077       .  S
C1087      C1088   1.370       .  A
C1087      H1099   1.082       .  S
C1088      H1100   1.075       .  S
C1089      C1090   1.370       .  A
C1089      H1101   1.082       .  S
C1090      H1102   1.076       .  S
C1091      C1363   1.493       .  S
C1092      C1329   1.495       .  S
C1093      C1504   1.499       .  S
C1094      C1540   1.499       .  S
N1105      C1110   1.347       .  A
N1105      C1109   1.350       .  A
N1105      H1137   1.041       .  S
N1106      C1113   1.353       .  A
N1106      C1114   1.348       .  A
N1107      C1112   1.354       .  A
N1107      C1111   1.353       .  A
N1107      H1138   1.044       .  S
N1108      C1115   1.355       .  A
N1108      C1116   1.351       .  A
C1109      C1117   1.387       .  A
C1109      C1125   1.411       .  A
C1110      C1126   1.409       .  A
C1110      C1118   1.388       .  A
C1111      C1119   1.382       .  A
C1111      C1128   1.411       .  A
C1112      C1127   1.410       .  A
C1112      C1120   1.383       .  A
C1113      C1125   1.409       .  A
C1113      C1121   1.382       .  A
C1114      C1128   1.413       .  A
C1114      C1122   1.385       .  A
C1115      C1123   1.383       .  A
C1115      C1126   1.413       .  A
C1116      C1124   1.386       .  A
C1116      C1127   1.418       .  A
C1117      C1118   1.377       .  A
C1117      H1129   1.082       .  S
C1118      H1130   1.082       .  S
C1119      C1120   1.381       .  A
C1119      H1131   1.080       .  S
C1120      H1132   1.080       .  S
C1121      C1122   1.372       .  A
C1121      H1133   1.082       .  S
C1122      H1134   1.076       .  S
C1123      C1124   1.371       .  A
C1123      H1135   1.082       .  S
C1124      H1136   1.076       .  S
C1125      C1194   1.498       .  S
C1126      C1331   1.495       .  S
C1127      C1484   1.490       .  S
C1128      C1416   1.487       .  S
N1139      C1144   1.350       .  A
N1139      C1143   1.350       .  A
N1139      H1171   1.040       .  S
N1140      C1147   1.354       .  A
N1140      C1148   1.350       .  A
N1141      C1146   1.355       .  A
N1141      C1145   1.355       .  A
N1141      H1172   1.038       .  S
N1142      C1149   1.356       .  A
N1142      C1150   1.351       .  A
C1143      C1151   1.387       .  A
C1143      C1159   1.411       .  A
C1144      C1160   1.411       .  A
C1144      C1152   1.387       .  A
C1145      C1153   1.384       .  A
C1145      C1162   1.419       .  A
C1146      C1161   1.418       .  A
C1146      C1154   1.383       .  A
C1147      C1159   1.411       .  A
C1147      C1155   1.383       .  A
C1148      C1162   1.417       .  A
C1148      C1156   1.385       .  A
C1149      C1157   1.382       .  A
C1149      C1160   1.414       .  A
C1150      C1158   1.387       .  A
C1150      C1161   1.421       .  A
C1151      C1152   1.376       .  A
C1151      H1163   1.082       .  S
C1152      H1164   1.082       .  S
C1153      C1154   1.377       .  A
C1153      H1165   1.078       .  S
C1154      H1166   1.076       .  S
C1155      C1156   1.371       .  A
C1155      H1167   1.082       .  S
C1156      H1168   1.076       .  S
C1157      C1158   1.369       .  A
C1157      H1169   1.082       .  S
C1158      H1170   1.077       .  S
C1159      C1332   1.495       .  S
C1160      C1193   1.500       .  S
C1161      C1439   1.494       .  S
C1162      C1495   1.494       .  S
N1173      C1178   1.353       .  A
N1173      H1205   1.039       .  S
N1174      C1181   1.351       .  A
N1174      C1182   1.351       .  A
N1175      C1180   1.352       .  A
N1175      H1206   1.040       .  S
N1176      C1183   1.352       .  A
N1176      C1184   1.352       .  A
C1177      C1193   1.417       .  A
C1178      C1194   1.416       .  A
C1178      C1186   1.387       .  A
C1179      C1196   1.415       .  A
C1180      C1195   1.414       .  A
C1180      C1188   1.387       .  A
C1181      C1193   1.414       .  A
C1181      C1189   1.386       .  A
C1182      C1196   1.414       .  A
C1182      C1190   1.386       .  A
C1183      C1191   1.387       .  A
C1183      C1194   1.416       .  A
C1184      C1192   1.386       .  A
C1184      C1195   1.416       .  A
C1185      C1186   1.377       .  A
C1186      H1198   1.082       .  S
C1187      C1188   1.375       .  A
C1188      H1200   1.082       .  S
C1189      C1190   1.376       .  A
C1189      H1201   1.082       .  S
C1190      H1202   1.082       .  S
C1191      C1192   1.376       .  A
C1191      H1203   1.082       .  S
C1192      H1204   1.082       .  S
C1195      C1261   1.499       .  S
C1196      C1228   1.500       .  S
N1207      C1212   1.350       .  A
N1207      C1211   1.349       .  A
N1207      H1239   1.041       .  S
N1208      C1215   1.355       .  A
N1208      C1216   1.351       .  A
N1209      C1214   1.351       .  A
N1209      C1213   1.352       .  A
N1209      H1240   1.043       .  S
N1210      C1217   1.354       .  A
N1210      C1218   1.350       .  A
C1211      C1219   1.387       .  A
C1211      C1227   1.411       .  A
C1212      C1228   1.411       .  A
C1212      C1220   1.387       .  A
C1213      C1221   1.384       .  A
C1213      C1230   1.407       .  A
C1214      C1229   1.408       .  A
C1214      C1222   1.384       .  A
C1215      C1227   1.412       .  A
C1215      C1223   1.383       .  A
C1216      C1230   1.418       .  A
C1216      C1224   1.386       .  A
C1217      C1225   1.383       .  A
C1217      C1228   1.412       .  A
C1218      C1226   1.386       .  A
C1218      C1229   1.416       .  A
C1219      C1220   1.376       .  A
C1219      H1231   1.082       .  S
C1220      H1232   1.082       .  S
C1221      C1222   1.379       .  A
C1221      H1233   1.080       .  S
C1222      H1234   1.081       .  S
C1223      C1224   1.371       .  A
C1223      H1235   1.082       .  S
C1224      H1236   1.076       .  S
C1225      C1226   1.372       .  A
C1225      H1237   1.082       .  S
C1226      H1238   1.078       .  S
C1227      C1295   1.498       .  S
C1229      C1436   1.482       .  S
C1230      C1546   1.484       .  S
N1241      C1246   1.349       .  A
N1241      C1245   1.350       .  A
N1241      H1273   1.040       .  S
N1242      C1249   1.355       .  A
N1242      C1250   1.350       .  A
N1243      C1248   1.357       .  A
N1243      C1247   1.355       .  A
N1243      H1274   1.040       .  S
N1244      C1251   1.354       .  A
N1244      C1252   1.351       .  A
C1245      C1253   1.387       .  A
C1245      C1261   1.413       .  A
C1246      C1262   1.412       .  A
C1246      C1254   1.387       .  A
C1247      C1255   1.384       .  A
C1247      C1264   1.420       .  A
C1248      C1263   1.421       .  A
C1248      C1256   1.384       .  A
C1249      C1261   1.411       .  A
C1249      C1257   1.382       .  A
C1250      C1264   1.419       .  A
C1250      C1258   1.386       .  A
C1251      C1259   1.383       .  A
C1251      C1262   1.410       .  A
C1252      C1260   1.385       .  A
C1252      C1263   1.417       .  A
C1253      C1254   1.378       .  A
C1253      H1265   1.082       .  S
C1254      H1266   1.082       .  S
C1255      C1256   1.380       .  A
C1255      H1267   1.077       .  S
C1256      H1268   1.078       .  S
C1257      C1258   1.369       .  A
C1257      H1269   1.082       .  S
C1258      H1270   1.076       .  S
C1259      C1260   1.370       .  A
C1259      H1271   1.082       .  S
C1260      H1272   1.076       .  S
C1262      C1298   1.494       .  S
C1263      C1557   1.500       .  S
C1264      C1419   1.496       .  S
N1275      C1280   1.351   1_455  A
N1275      C1279   1.352       .  A
N1275      H1307   1.041       .  S
N1276      C1284   1.350       .  A
N1277      C1282   1.353   1_455  A
N1277      C1281   1.352       .  A
N1277      H1308   1.040       .  S
N1278      C1286   1.350       .  A
C1279      C1287   1.387       .  A
C1279      C1295   1.413       .  A
C1280      C1296   1.414       .  A
C1280      C1288   1.387       .  A
C1281      C1289   1.387       .  A
C1281      C1298   1.415       .  A
C1282      C1297   1.415       .  A
C1282      C1290   1.387       .  A
C1283      C1295   1.412       .  A
C1284      C1298   1.411       .  A
C1284      C1292   1.386       .  A
C1285      C1296   1.411       .  A
C1286      C1294   1.386       .  A
C1286      C1297   1.411       .  A
C1287      C1288   1.378   1_455  A
C1287      H1299   1.082       .  S
C1288      H1300   1.082       .  S
C1289      C1290   1.378   1_455  A
C1289      H1301   1.082       .  S
C1290      H1302   1.082       .  S
C1291      C1292   1.372       .  A
C1292      H1304   1.082       .  S
C1293      C1294   1.372       .  A
C1294      H1306   1.082       .  S
N1309      C1314   1.351       .  A
N1309      H1341   1.040       .  S
N1310      C1317   1.351   1_545  A
N1310      C1318   1.350       .  A
N1311      C1316   1.352       .  A
N1311      H1342   1.039       .  S
N1312      C1319   1.350   1_545  A
N1312      C1320   1.350       .  A
C1313      C1329   1.413       .  A
C1314      C1330   1.413       .  A
C1314      C1322   1.387       .  A
C1315      C1332   1.415       .  A
C1316      C1331   1.415       .  A
C1316      C1324   1.387       .  A
C1317      C1329   1.413       .  A
C1317      C1325   1.386       .  A
C1318      C1332   1.413       .  A
C1318      C1326   1.387       .  A
C1319      C1327   1.386       .  A
C1319      C1330   1.412       .  A
C1320      C1328   1.386       .  A
C1320      C1331   1.412       .  A
C1321      C1322   1.376       .  A
C1322      H1334   1.082       .  S
C1323      C1324   1.377       .  A
C1324      H1336   1.082       .  S
C1325      C1326   1.376   1_565  A
C1325      H1337   1.082       .  S
C1326      H1338   1.082       .  S
C1327      C1328   1.374   1_565  A
C1327      H1339   1.082       .  S
C1328      H1340   1.082       .  S
N1343      C1348   1.352       .  A
N1343      H1375   1.040       .  S
N1344      C1351   1.350       .  A
N1344      C1352   1.351   1_455  A
N1345      C1350   1.351       .  A
N1345      H1376   1.040       .  S
N1346      C1353   1.349       .  A
N1346      C1354   1.349   1_455  A
C1347      C1363   1.413       .  A
C1348      C1364   1.414       .  A
C1348      C1356   1.387       .  A
C1349      C1366   1.413       .  A
C1350      C1365   1.413       .  A
C1350      C1358   1.387       .  A
C1351      C1363   1.414       .  A
C1351      C1359   1.387       .  A
C1352      C1366   1.414       .  A
C1352      C1360   1.386       .  A
C1353      C1361   1.386       .  A
C1353      C1364   1.412       .  A
C1354      C1362   1.386       .  A
C1354      C1365   1.412       .  A
C1355      C1356   1.376       .  A
C1356      H1368   1.082       .  S
C1357      C1358   1.376       .  A
C1358      H1370   1.082       .  S
C1359      C1360   1.377   1_455  A
C1359      H1371   1.082       .  S
C1360      H1372   1.082       .  S
C1361      C1362   1.376   1_455  A
C1361      H1373   1.082       .  S
C1362      H1374   1.082       .  S
N1377      C1382   1.352       .  A
N1377      H1409   1.040       .  S
N1378      C1385   1.350       .  A
N1378      C1386   1.350       .  A
N1379      C1384   1.352       .  A
N1379      H1410   1.040       .  S
N1380      C1387   1.350       .  A
N1380      C1388   1.350       .  A
C1381      C1397   1.413       .  A
C1382      C1398   1.414       .  A
C1382      C1390   1.387       .  A
C1383      C1400   1.414       .  A
C1384      C1399   1.414       .  A
C1384      C1392   1.387       .  A
C1385      C1397   1.413       .  A
C1385      C1393   1.386       .  A
C1386      C1400   1.413       .  A
C1386      C1394   1.387       .  A
C1387      C1395   1.386       .  A
C1387      C1398   1.413       .  A
C1388      C1396   1.386       .  A
C1388      C1399   1.412       .  A
C1389      C1390   1.375       .  A
C1390      H1402   1.082       .  S
C1391      C1392   1.375       .  A
C1392      H1404   1.082       .  S
C1393      C1394   1.377       .  A
C1393      H1405   1.082       .  S
C1394      H1406   1.082       .  S
C1395      C1396   1.375       .  A
C1395      H1407   1.082       .  S
C1396      H1408   1.082       .  S
O1411     Zr1423   2.413       .  S
O1411      C1413   1.283       .  A
O1412     Zr1449   2.461       .  S
O1412      C1413   1.293       .  A
O1414     Zr1426   2.424       .  S
O1414      C1416   1.286       .  A
O1415     Zr1450   2.452       .  S
O1415      C1416   1.292       .  A
O1417     Zr1426   2.426       .  S
O1417      C1419   1.287       .  A
O1418     Zr1449   2.448       .  S
O1418      C1419   1.290       .  A
O1420     Zr1423   2.417       .  S
O1420      C1422   1.284       .  A
O1421     Zr1450   2.454       .  S
O1421      C1422   1.292       .  A
Zr1423     O1424   2.436       .  S
Zr1423     O1425   2.433       .  S
Zr1423     O1429   2.371       .  S
Zr1423     O1430   2.372       .  S
Zr1423     O1453   2.360       .  S
Zr1423     O1455   2.362       .  S
O1424      H1467   0.990       .  S
O1425      H1466   0.990       .  S
O1425      H1470   0.990       .  S
Zr1426     O1427   2.436       .  S
Zr1426     O1428   2.434       .  S
Zr1426     O1430   2.364       .  S
Zr1426     O1429   2.363       .  S
Zr1426     O1454   2.364       .  S
Zr1426     O1456   2.375       .  S
O1427      H1468   0.989       .  S
O1427      H1471   0.990       .  S
O1428      H1461   0.990       .  S
O1429     Zr1449   2.384       .  S
O1430     Zr1450   2.393       .  S
O1430      H1457   0.964       .  S
O1431     Zr1443   2.443       .  S
O1431      C1433   1.291       .  A
O1432     Zr1450   2.447       .  S
O1432      C1433   1.291       .  A
O1434     Zr1446   2.408       .  S
O1434      C1436   1.282       .  A
O1435     Zr1449   2.451       .  S
O1435      C1436   1.292       .  A
O1437     Zr1446   2.431       .  S
O1437      C1439   1.287       .  A
O1438     Zr1450   2.450       .  S
O1438      C1439   1.291       .  A
O1440     Zr1443   2.436       .  S
O1440      C1442   1.289       .  A
O1441     Zr1449   2.442       .  S
O1441      C1442   1.289       .  A
Zr1443     O1444   2.435       .  S
Zr1443     O1445   2.433       .  S
Zr1443     O1451   2.364       .  S
Zr1443     O1452   2.367       .  S
Zr1443     O1455   2.366       .  S
Zr1443     O1453   2.370       .  S
O1444      H1464   0.990       .  S
O1444      H1469   0.989       .  S
O1445      H1465   0.990       .  S
Zr1446     O1447   2.436       .  S
Zr1446     O1448   2.434       .  S
Zr1446     O1452   2.374       .  S
Zr1446     O1451   2.363       .  S
Zr1446     O1456   2.357       .  S
Zr1446     O1454   2.366       .  S
O1447      H1463   0.990       .  S
O1448      H1462   0.990       .  S
O1448      H1472   0.990       .  S
Zr1449     O1452   2.389       .  S
Zr1449     O1454   2.400       .  S
Zr1449     O1455   2.399       .  S
Zr1450     O1451   2.392       .  S
Zr1450     O1453   2.399       .  S
Zr1450     O1456   2.398       .  S
O1451      H1459   0.964       .  S
O1454      H1458   0.966       .  S
O1455      H1460   0.966       .  S
O1473     Zr1485   2.407   1_565  S
O1473      C1475   1.282       .  A
O1474     Zr1511   2.442       .  S
O1474      C1475   1.290       .  A
O1476     Zr1488   2.434       .  S
O1476      C1478   1.288       .  A
O1477     Zr1512   2.450       .  S
O1477      C1478   1.291       .  A
O1479     Zr1488   2.416   1_565  S
O1479      C1481   1.284       .  A
O1480     Zr1511   2.461       .  S
O1480      C1481   1.293       .  A
O1482     Zr1485   2.417       .  S
O1482      C1484   1.284       .  A
O1483     Zr1512   2.469       .  S
O1483      C1484   1.295       .  A
Zr1485     O1486   2.435       .  S
Zr1485     O1487   2.434       .  S
Zr1485     O1491   2.369   1_545  S
Zr1485     O1492   2.367       .  S
Zr1485     O1515   2.361       .  S
Zr1485     O1517   2.360   1_545  S
O1486      H1529   0.990       .  S
O1487      H1528   0.990   1_545  S
O1487      H1532   0.990       .  S
Zr1488     O1489   2.435       .  S
Zr1488     O1490   2.435       .  S
Zr1488     O1492   2.359       .  S
Zr1488     O1491   2.368   1_545  S
Zr1488     O1516   2.373   1_545  S
Zr1488     O1518   2.368       .  S
O1489      H1530   0.989       .  S
O1489      H1533   0.990       .  S
O1490      H1523   0.990       .  S
O1491     Zr1511   2.387       .  S
O1492     Zr1512   2.388       .  S
O1492      H1519   0.966       .  S
O1493     Zr1505   2.437       .  S
O1493      C1495   1.289       .  A
O1494     Zr1512   2.442       .  S
O1494      C1495   1.290       .  A
O1496     Zr1508   2.428   1_565  S
O1496      C1498   1.287       .  A
O1497     Zr1511   2.444       .  S
O1497      C1498   1.289       .  A
O1499     Zr1508   2.412       .  S
O1499      C1501   1.283       .  A
O1500     Zr1512   2.460       .  S
O1500      C1501   1.293       .  A
O1502     Zr1505   2.426   1_565  S
O1502      C1504   1.287       .  A
O1503     Zr1511   2.455       .  S
O1503      C1504   1.292       .  A
Zr1505     O1506   2.435       .  S
Zr1505     O1507   2.434       .  S
Zr1505     O1513   2.361       .  S
Zr1505     O1514   2.369   1_545  S
Zr1505     O1517   2.366   1_545  S
Zr1505     O1515   2.369       .  S
O1506      H1526   0.989       .  S
O1506      H1531   0.990       .  S
O1507      H1527   0.990       .  S
Zr1508     O1509   2.435       .  S
Zr1508     O1510   2.433       .  S
Zr1508     O1514   2.365   1_545  S
Zr1508     O1513   2.373       .  S
Zr1508     O1518   2.366       .  S
Zr1508     O1516   2.355   1_545  S
O1509      H1525   0.990       .  S
O1510      H1524   0.990       .  S
O1510      H1534   0.990   1_545  S
Zr1511     O1514   2.385       .  S
Zr1511     O1516   2.400       .  S
Zr1511     O1517   2.400       .  S
Zr1512     O1513   2.396       .  S
Zr1512     O1515   2.398       .  S
Zr1512     O1518   2.401       .  S
O1513      H1521   0.964       .  S
O1516      H1520   0.967       .  S
O1517      H1522   0.966       .  S
O1535     Zr1547   2.408   1_655  S
O1535      C1537   1.282       .  A
O1536     Zr1573   2.449       .  S
O1536      C1537   1.290       .  A
O1538     Zr1550   2.438       .  S
O1538      C1540   1.290       .  A
O1539     Zr1574   2.452       .  S
O1539      C1540   1.292       .  A
O1541     Zr1550   2.433   1_655  S
O1541      C1543   1.289       .  A
O1542     Zr1573   2.449       .  S
O1542      C1543   1.290       .  A
O1544     Zr1547   2.411       .  S
O1544      C1546   1.282       .  A
O1545     Zr1574   2.462       .  S
O1545      C1546   1.293       .  A
Zr1547     O1548   2.435       .  S
Zr1547     O1549   2.435       .  S
Zr1547     O1553   2.370   1_455  S
Zr1547     O1554   2.370       .  S
Zr1547     O1577   2.361       .  S
Zr1547     O1579   2.358   1_455  S
O1548      H1591   0.990       .  S
O1549      H1590   0.990   1_455  S
O1549      H1594   0.990       .  S
Zr1550     O1551   2.435       .  S
Zr1550     O1552   2.435       .  S
Zr1550     O1554   2.362       .  S
Zr1550     O1553   2.367   1_455  S
Zr1550     O1578   2.369   1_455  S
Zr1550     O1580   2.373       .  S
O1551      H1592   0.989       .  S
O1551      H1595   0.990       .  S
O1552      H1585   0.990       .  S
O1553     Zr1573   2.386       .  S
O1554     Zr1574   2.390       .  S
O1554      H1581   0.963       .  S
O1555     Zr1567   2.437       .  S
O1555      C1557   1.290       .  A
O1556     Zr1574   2.455       .  S
O1556      C1557   1.292       .  A
O1558     Zr1570   2.410   1_655  S
O1558      C1560   1.282       .  A
O1559     Zr1573   2.448       .  S
O1559      C1560   1.291       .  A
O1561     Zr1570   2.413       .  S
O1561      C1563   1.283       .  A
O1562     Zr1574   2.462       .  S
O1562      C1563   1.294       .  A
O1564     Zr1567   2.428   1_655  S
O1564      C1566   1.287       .  A
O1565     Zr1573   2.446       .  S
O1565      C1566   1.290       .  A
Zr1567     O1568   2.436       .  S
Zr1567     O1569   2.434       .  S
Zr1567     O1575   2.358       .  S
Zr1567     O1576   2.364   1_455  S
Zr1567     O1579   2.369   1_455  S
Zr1567     O1577   2.373       .  S
O1568      H1588   0.989       .  S
O1568      H1593   0.990       .  S
O1569      H1589   0.990       .  S
Zr1570     O1571   2.436       .  S
Zr1570     O1572   2.434       .  S
Zr1570     O1576   2.369   1_455  S
Zr1570     O1575   2.372       .  S
Zr1570     O1580   2.359       .  S
Zr1570     O1578   2.359   1_455  S
O1571      H1587   0.990       .  S
O1572      H1586   0.990       .  S
O1572      H1596   0.990       .  S
Zr1573     O1576   2.385       .  S
Zr1573     O1578   2.400       .  S
Zr1573     O1579   2.401       .  S
Zr1574     O1575   2.390       .  S
Zr1574     O1577   2.400       .  S
Zr1574     O1580   2.401       .  S
O1575      H1583   0.962       .  S
O1578      H1582   0.966       .  S
O1579      H1584   0.966       .  S
