geometry optimzed in LAMMPS
_audit_creation_date              2020-11-30 
_audit_creation_method            'lammps2cif' 
_symmetry_space_group_name_H-M    'P1' 
_symmetry_Int_Tables_number       1 
_symmetry_cell_setting            triclinic 
loop_ 
_symmetry_equiv_pos_as_xyz 
  x,y,z 
_cell_length_a                    26.18646728 
_cell_length_b                    26.186467280019563 
_cell_length_c                    39.28546593326115 
_cell_angle_alpha                 89.99977490239293 
_cell_angle_beta                  90.0007031028318 
_cell_angle_gamma                 90.00007003762221 
loop_ 
_atom_site_label 
_atom_site_type_symbol 
_atom_site_fract_x 
_atom_site_fract_y 
_atom_site_fract_z 
_atom_site_charge 
O1          O  0.45846673  0.42754248  0.16679024    -0.72200
O2          O  0.45846309  0.07248431  0.16684973    -0.72400
O3          O  0.45846497  0.50005782  0.11848300    -0.72300
O4          O  0.45845126  0.99996301  0.21515835    -0.72300
O5          O  0.04153191  0.50006819  0.21515531    -0.72300
O6          O  0.04149915  0.99997025  0.11848073    -0.72300
O7          O  0.04150587  0.07248735  0.16678657    -0.72200
O8          O  0.04150949  0.42754503  0.16684792    -0.72400
V9          V  0.46008130  0.50001266  0.16682032     1.35200
V10         V  0.03989169  0.00001687  0.16681769     1.35200
C11         C  0.99998841  0.40295562  0.16681893     0.77000
C12         C  0.99998394  0.09707400  0.16681843     0.77100
C13         C  0.99998085  0.00001363  0.10207446     0.77000
C14         C  0.49999337  0.00001616  0.23148582     0.76900
O15         O  0.04152917  0.25006626  0.21515662    -0.72200
O16         O  0.04149897  0.24996917  0.11848168    -0.72400
O17         O  0.04150876  0.32248591  0.16678799    -0.72300
O18         O  0.04150528  0.17754399  0.16684850    -0.72300
O19         O  0.45846245  0.17754363  0.16679088    -0.72300
O20         O  0.45846593  0.32248603  0.16684922    -0.72300
O21         O  0.45846479  0.25005870  0.11848331    -0.72200
O22         O  0.45844836  0.24996619  0.21515842    -0.72400
V23         V  0.03989061  0.25001548  0.16681878     1.35200
V24         V  0.46008020  0.25001438  0.16682050     1.35200
C25         C  0.49998980  0.25001757  0.23148656     0.77000
C26         C  0.99998090  0.25001323  0.10207509     0.77100
C27         C  0.99998785  0.34707409  0.16681865     0.77000
C28         C  0.99998374  0.15295563  0.16681931     0.76900
O29         O  0.20846759  0.07248350  0.16685340    -0.72200
O30         O  0.20846419  0.42754142  0.16678907    -0.72400
O31         O  0.20845340  0.99995901  0.21515965    -0.72300
O32         O  0.20846410  0.50006184  0.11848431    -0.72300
O33         O  0.29149822  0.99997115  0.11848117    -0.72300
O34         O  0.29153410  0.50006007  0.21515573    -0.72300
O35         O  0.29150693  0.42754148  0.16684563    -0.72200
O36         O  0.29151030  0.07248374  0.16678928    -0.72400
V37         V  0.21008212  0.00001202  0.16682162     1.35200
V38         V  0.28989248  0.50001307  0.16681804     1.35200
C39         C  0.24998920  0.09707181  0.16682147     0.77000
C40         C  0.24998527  0.40295332  0.16681685     0.77100
C41         C  0.24999586  0.00001000  0.23148672     0.77000
C42         C  0.24997953  0.00001923  0.10207533     0.76900
O43         O  0.29151017  0.17754314  0.16685010    -0.72200
O44         O  0.29150671  0.32248513  0.16678531    -0.72400
O45         O  0.29153028  0.25006904  0.21515592    -0.72300
O46         O  0.29150079  0.24996734  0.11848095    -0.72300
O47         O  0.20846666  0.25005620  0.11848258    -0.72300
O48         O  0.20844960  0.24996245  0.21515741    -0.72300
O49         O  0.20846397  0.32248240  0.16684827    -0.72200
O50         O  0.20846746  0.17754026  0.16679030    -0.72400
V51         V  0.28989215  0.25001503  0.16681809     1.35200
V52         V  0.21008186  0.25001077  0.16681962     1.35200
C53         C  0.24998931  0.15295350  0.16682084     0.77000
C54         C  0.24998489  0.34707186  0.16681653     0.77100
C55         C  0.24999086  0.25001807  0.23148568     0.77000
C56         C  0.24998265  0.25001424  0.10207439     0.76900
O57         O  0.42752950  0.45850071  0.33329106    -0.72200
O58         O  0.07247143  0.45849414  0.33322809    -0.72400
O59         O  0.50004795  0.45850335  0.38159610    -0.72300
O60         O  0.99994551  0.45847737  0.28492126    -0.72300
O61         O  0.50005345  0.04155808  0.28492008    -0.72300
O62         O  0.99996111  0.04153744  0.38159488    -0.72300
O63         O  0.07247558  0.04153679  0.33328804    -0.72200
O64         O  0.42753318  0.04154340  0.33322868    -0.72400
V65         V  0.49999953  0.46011382  0.33325902     1.35200
V66         V  0.00000519  0.03992413  0.33325790     1.35200
C67         C  0.40294323  0.00002267  0.33326011     0.77000
C68         C  0.09706166  0.00001456  0.33325827     0.77100
C69         C  0.50000443  0.00002090  0.39800284     0.77000
C70         C  0.49999769  0.50001725  0.26859162     0.76900
O71         O  0.50004311  0.29156106  0.28492069    -0.72200
O72         O  0.99995354  0.29154066  0.38159612    -0.72400
O73         O  0.07246656  0.29154325  0.33328802    -0.72300
O74         O  0.42752443  0.29154506  0.33323031    -0.72300
O75         O  0.42752226  0.20850233  0.33328976    -0.72300
O76         O  0.07246461  0.20850053  0.33323117    -0.72300
O77         O  0.50003853  0.20850653  0.38159699    -0.72200
O78         O  0.99994278  0.20848037  0.28492243    -0.72400
V79         V  0.49999605  0.28992770  0.33325879     1.35200
V80         V  0.49999274  0.21011742  0.33326005     1.35200
C81         C  0.49999218  0.25001990  0.26859252     0.77000
C82         C  0.49999687  0.25002369  0.39800396     0.77100
C83         C  0.09705374  0.25002172  0.33325960     0.77000
C84         C  0.40293521  0.25002405  0.33325974     0.76900
O85         O  0.17753112  0.04153610  0.33322817    -0.72200
O86         O  0.32247294  0.04154255  0.33328899    -0.72400
O87         O  0.25005126  0.04155420  0.28492030    -0.72300
O88         O  0.24995683  0.04153770  0.38159549    -0.72300
O89         O  0.25004898  0.45850367  0.38159772    -0.72300
O90         O  0.24995205  0.45847359  0.28492309    -0.72300
O91         O  0.32247416  0.45849973  0.33323144    -0.72200
O92         O  0.17753178  0.45849347  0.33329084    -0.72400
V93         V  0.25000239  0.03992274  0.33325827     1.35200
V94         V  0.25000259  0.46011255  0.33326075     1.35200
C95         C  0.15294331  0.00001425  0.33325909     0.77000
C96         C  0.34706172  0.00002195  0.33326027     0.77100
C97         C  0.25000041  0.00001262  0.26859266     0.77000
C98         C  0.25000296  0.00002142  0.39800400     0.76900
O99         O  0.24994048  0.20848129  0.28492134    -0.72200
O100        O  0.25004293  0.20850646  0.38159570    -0.72400
O101        O  0.17752311  0.20850086  0.33329082    -0.72300
O102        O  0.32246514  0.20850257  0.33322788    -0.72300
O103        O  0.32246600  0.29154531  0.33328929    -0.72300
O104        O  0.17752388  0.29154358  0.33322766    -0.72300
O105        O  0.24994987  0.29154059  0.38159527    -0.72200
O106        O  0.25004572  0.29156198  0.28491985    -0.72400
V107        V  0.24999363  0.21011782  0.33325885     1.35200
V108        V  0.24999552  0.28992811  0.33325798     1.35200
C109        C  0.24999269  0.25002086  0.26859158     0.77000
C110        C  0.24999769  0.25002348  0.39800287     0.77100
C111        C  0.15293533  0.25002208  0.33325940     0.77000
C112        C  0.34705370  0.25002399  0.33325892     0.76900
O113        O  0.42753215  0.04154457  0.50002795    -0.72200
O114        O  0.07247324  0.04154293  0.50004814    -0.72400
O115        O  0.50001698  0.04153912  0.45170103    -0.72300
O116        O  0.99998854  0.04154209  0.54837473    -0.72300
O117        O  0.50001471  0.45850896  0.54837598    -0.72300
O118        O  0.99998894  0.45850582  0.45170233    -0.72300
O119        O  0.07247264  0.45850329  0.50003028    -0.72200
O120        O  0.42753143  0.45850479  0.50004820    -0.72400
V121        V  0.50000286  0.03992165  0.50003792     1.35200
V122        V  0.00000205  0.46012624  0.50003915     1.35200
C123        C  0.40294293  0.00002481  0.50003861     0.77000
C124        C  0.09706166  0.00002291  0.50003919     0.77100
C125        C  0.50000356  0.00002194  0.43529394     0.77000
C126        C  0.50000058  0.00002598  0.56478310     0.76900
O127        O  0.50001411  0.29153976  0.45170306    -0.72200
O128        O  0.99999522  0.29153907  0.54837667    -0.72400
O129        O  0.07247496  0.29153908  0.50004746    -0.72300
O130        O  0.42753353  0.29154493  0.50003223    -0.72300
O131        O  0.42753148  0.20850521  0.50004901    -0.72300
O132        O  0.07247237  0.20849935  0.50003071    -0.72300
O133        O  0.50001587  0.20850580  0.54837691    -0.72200
O134        O  0.99998713  0.20850650  0.45170295    -0.72400
V135        V  0.50000442  0.28992017  0.50003990     1.35200
V136        V  0.50000174  0.21012469  0.50003992     1.35200
C137        C  0.49999944  0.25002342  0.43529521     0.77000
C138        C  0.50000629  0.25002250  0.56478455     0.77100
C139        C  0.09706246  0.25001843  0.50003894     0.77000
C140        C  0.40294367  0.25002546  0.50004035     0.76900
O141        O  0.17753135  0.04154283  0.50003025    -0.72200
O142        O  0.32247249  0.04154440  0.50004826    -0.72400
O143        O  0.25001407  0.04153962  0.45170246    -0.72300
O144        O  0.24998886  0.04154120  0.54837620    -0.72300
O145        O  0.25001306  0.45850790  0.54837719    -0.72300
O146        O  0.24999120  0.45850655  0.45170350    -0.72300
O147        O  0.32247304  0.45850473  0.50003258    -0.72200
O148        O  0.17753193  0.45850323  0.50004796    -0.72400
V149        V  0.25000181  0.03992152  0.50003937     1.35200
V150        V  0.25000246  0.46012612  0.50004031     1.35200
C151        C  0.15294280  0.00002278  0.50003911     0.77000
C152        C  0.34706163  0.00002480  0.50003991     0.77100
C153        C  0.25000280  0.00002267  0.43529521     0.77000
C154        C  0.24999910  0.00002486  0.56478444     0.76900
O155        O  0.17753150  0.29153836  0.50003005    -0.72200
O156        O  0.32247246  0.29154425  0.50004780    -0.72400
O157        O  0.25001286  0.29153907  0.45170204    -0.72300
O158        O  0.24999014  0.29153714  0.54837554    -0.72300
O159        O  0.25001800  0.20850387  0.54837564    -0.72300
O160        O  0.24999061  0.20850580  0.45170163    -0.72300
O161        O  0.32247472  0.20850453  0.50002984    -0.72200
O162        O  0.17753335  0.20849863  0.50004750    -0.72400
V163        V  0.25000176  0.28991908  0.50003885     1.35200
V164        V  0.25000422  0.21012359  0.50003860     1.35200
C165        C  0.15294362  0.25001802  0.50003879     0.77000
C166        C  0.34706242  0.25002520  0.50003932     0.77100
C167        C  0.25000059  0.25002284  0.43529406     0.77000
C168        C  0.25000471  0.25002049  0.56478336     0.76900
O169        O  0.04149550  0.00000284  0.95170213    -0.72200
O170        O  0.04149541  0.50002483  0.04837547    -0.72400
O171        O  0.04149936  0.42754311  0.00004701    -0.72300
O172        O  0.04149741  0.07248424  0.00003056    -0.72300
O173        O  0.45845787  0.07248341  0.00004622    -0.72300
O174        O  0.45845968  0.42754238  0.00003028    -0.72300
O175        O  0.45846224  0.00000095  0.04837529    -0.72200
O176        O  0.45846236  0.50002476  0.95170102    -0.72400
V177        V  0.03987637  0.00001370  0.00003878     1.35200
V178        V  0.46008094  0.00001273  0.00003818     1.35200
C179        C  0.99997923  0.00001472  0.93529378     0.77000
C180        C  0.99997909  0.00001303  0.06478319     0.77100
C181        C  0.99997966  0.40295393  0.00003900     0.77000
C182        C  0.99997736  0.09707267  0.00003826     0.76900
O183        O  0.04149554  0.25002532  0.04837612    -0.72200
O184        O  0.04149514  0.25000152  0.95170281    -0.72400
O185        O  0.04149941  0.32248371  0.00003059    -0.72300
O186        O  0.04149744  0.17754253  0.00004826    -0.72300
O187        O  0.45845790  0.17754311  0.00002833    -0.72300
O188        O  0.45845959  0.32248429  0.00004903    -0.72300
O189        O  0.45846202  0.25002952  0.95170166    -0.72200
O190        O  0.45846230  0.24999880  0.04837588    -0.72400
V191        V  0.03987632  0.25001312  0.00003943     1.35200
V192        V  0.46008090  0.25001382  0.00003876     1.35200
C193        C  0.99997921  0.25001217  0.06478382     0.77000
C194        C  0.99997876  0.25001716  0.93529449     0.77100
C195        C  0.99997979  0.34707279  0.00003966     0.77000
C196        C  0.99997737  0.15295397  0.00003820     0.76900
O197        O  0.20845936  0.07250054  0.00004855    -0.72200
O198        O  0.20845908  0.42755939  0.00002810    -0.72400
O199        O  0.20846108  0.00001398  0.04837575    -0.72300
O200        O  0.20846493  0.50004573  0.95170128    -0.72300
O201        O  0.29149828  0.00001845  0.95170372    -0.72300
O202        O  0.29149422  0.50004107  0.04837683    -0.72300
O203        O  0.29149875  0.42755925  0.00004922    -0.72200
O204        O  0.29149908  0.07250052  0.00003132    -0.72400
V205        V  0.21008148  0.00003003  0.00003845     1.35200
V206        V  0.28987691  0.50002991  0.00004028     1.35200
C207        C  0.24997928  0.09708930  0.00003924     0.77000
C208        C  0.24997879  0.40297044  0.00003898     0.77100
C209        C  0.24997767  0.00002522  0.06478409     0.77000
C210        C  0.24998258  0.00003346  0.93529473     0.76900
O211        O  0.29149526  0.25002121  0.95170219    -0.72200
O212        O  0.29149666  0.25003685  0.04837531    -0.72400
O213        O  0.29149901  0.17755921  0.00004532    -0.72300
O214        O  0.29149857  0.32250029  0.00003213    -0.72300
O215        O  0.20845887  0.32250012  0.00004783    -0.72300
O216        O  0.20845927  0.17755901  0.00002905    -0.72300
O217        O  0.20846340  0.25001405  0.04837555    -0.72200
O218        O  0.20846199  0.25004367  0.95170113    -0.72400
V219        V  0.28987676  0.25002962  0.00003869     1.35200
V220        V  0.21008127  0.25002942  0.00003840     1.35200
C221        C  0.24997891  0.25003314  0.93529388     0.77000
C222        C  0.24998056  0.25002180  0.06478320     0.77100
C223        C  0.24997912  0.15297036  0.00003768     0.77000
C224        C  0.24997872  0.34708908  0.00003974     0.76900
O225        O  0.04152844  0.99997598  0.78492166    -0.72200
O226        O  0.04149882  0.50006201  0.88159657    -0.72400
O227        O  0.04150764  0.42755079  0.83328727    -0.72300
O228        O  0.04150633  0.07249238  0.83323263    -0.72300
O229        O  0.45846369  0.07249348  0.83328720    -0.72300
O230        O  0.45846495  0.42755094  0.83322679    -0.72300
O231        O  0.45846474  0.99997597  0.88159374    -0.72200
O232        O  0.45844775  0.50007348  0.78491881    -0.72400
V233        V  0.03989039  0.00002106  0.83325943     1.35200
V234        V  0.46008005  0.00002272  0.83325663     1.35200
C235        C  0.49998915  0.00002573  0.76859123     0.77000
C236        C  0.99998088  0.00001762  0.89800255     0.77100
C237        C  0.99998660  0.40296270  0.83325715     0.77000
C238        C  0.99998513  0.09708109  0.83326014     0.76900
O239        O  0.45846650  0.32249360  0.83328771    -0.72200
O240        O  0.45846507  0.17755199  0.83322600    -0.72400
O241        O  0.45846512  0.24997571  0.88159385    -0.72300
O242        O  0.45845400  0.25007545  0.78491852    -0.72300
O243        O  0.04153471  0.24996788  0.78492409    -0.72300
O244        O  0.04149927  0.25006803  0.88159820    -0.72300
O245        O  0.04150778  0.17754967  0.83329396    -0.72200
O246        O  0.04150929  0.32249239  0.83322971    -0.72400
V247        V  0.46008252  0.25002346  0.83325659     1.35200
V248        V  0.03989289  0.25002035  0.83326143     1.35200
C249        C  0.99998789  0.34708114  0.83325809     0.77000
C250        C  0.99998590  0.15296268  0.83326016     0.77100
C251        C  0.49998075  0.25002066  0.89800337     0.77000
C252        C  0.49999674  0.25002195  0.76859238     0.76900
O253        O  0.20847081  0.07250768  0.83328791    -0.72200
O254        O  0.20846756  0.42756559  0.83322778    -0.72400
O255        O  0.20846958  0.99999130  0.88159453    -0.72300
O256        O  0.20845341  0.50008747  0.78491993    -0.72300
O257        O  0.29153417  0.99998030  0.78492288    -0.72300
O258        O  0.29150364  0.50008149  0.88159790    -0.72300
O259        O  0.29151028  0.42756318  0.83329320    -0.72200
O260        O  0.29151354  0.07250530  0.83322912    -0.72400
V261        V  0.21008539  0.00003730  0.83325760     1.35200
V262        V  0.28989556  0.50003347  0.83326072     1.35200
C263        C  0.24999256  0.09709467  0.83325822     0.77000
C264        C  0.24998847  0.40297625  0.83326043     0.77100
C265        C  0.24998537  0.00003582  0.89800358     0.77000
C266        C  0.24999472  0.00003267  0.76859245     0.76900
O267        O  0.29153808  0.24998636  0.78492342    -0.72200
O268        O  0.29150056  0.25007930  0.88159789    -0.72400
O269        O  0.29151336  0.17756443  0.83329058    -0.72300
O270        O  0.29151030  0.32250652  0.83323256    -0.72300
O271        O  0.20846756  0.32250660  0.83328619    -0.72300
O272        O  0.20847064  0.17756447  0.83322563    -0.72300
O273        O  0.20846642  0.24998980  0.88159276    -0.72200
O274        O  0.20845737  0.25008620  0.78491756    -0.72400
V275        V  0.28989565  0.25003500  0.83326099     1.35200
V276        V  0.21008535  0.25003605  0.83325555     1.35200
C277        C  0.25000013  0.25003554  0.76859151     0.77000
C278        C  0.24998158  0.25003424  0.89800270     0.77100
C279        C  0.24999228  0.15297628  0.83325801     0.77000
C280        C  0.24998872  0.34709470  0.83325982     0.76900
O281        O  0.99994236  0.04156714  0.71515640    -0.72200
O282        O  0.50004001  0.04154400  0.61848136    -0.72400
O283        O  0.42752278  0.04154960  0.66678722    -0.72300
O284        O  0.07246461  0.04154765  0.66684911    -0.72300
O285        O  0.07246526  0.45850485  0.66679049    -0.72300
O286        O  0.42752304  0.45850695  0.66684632    -0.72300
O287        O  0.99995169  0.45850993  0.61848183    -0.72200
O288        O  0.50004154  0.45848647  0.71515637    -0.72400
V289        V  0.49999318  0.03993221  0.66681852     1.35200
V290        V  0.49999463  0.46012201  0.66681874     1.35200
C291        C  0.49999127  0.00002660  0.73148538     0.77000
C292        C  0.49999730  0.00002671  0.60207424     0.77100
C293        C  0.40293475  0.00002849  0.66681698     0.77000
C294        C  0.09705309  0.00002625  0.66682003     0.76900
O295        O  0.99995485  0.29156321  0.71515778    -0.72200
O296        O  0.50005325  0.29154013  0.61848287    -0.72400
O297        O  0.42753637  0.29154734  0.66678845    -0.72300
O298        O  0.07247779  0.29154325  0.66685041    -0.72300
O299        O  0.07247805  0.20850053  0.66679072    -0.72300
O300        O  0.42753531  0.20850461  0.66684836    -0.72300
O301        O  0.99996236  0.20850598  0.61848315    -0.72200
O302        O  0.50005483  0.20848249  0.71515764    -0.72400
V303        V  0.50000661  0.28992851  0.66681995     1.35200
V304        V  0.50000703  0.21011821  0.66682003     1.35200
C305        C  0.50000252  0.25002262  0.73148665     0.77000
C306        C  0.50000750  0.25002296  0.60207567     0.77100
C307        C  0.40294771  0.25002668  0.66681833     0.77000
C308        C  0.09706610  0.25002189  0.66682015     0.76900
O309        O  0.24994214  0.04157024  0.71515681    -0.72200
O310        O  0.25003878  0.04154329  0.61848221    -0.72400
O311        O  0.17752184  0.04154801  0.66678817    -0.72300
O312        O  0.32246418  0.04155025  0.66684913    -0.72300
O313        O  0.32246601  0.45850743  0.66678854    -0.72300
O314        O  0.17752409  0.45850523  0.66685170    -0.72300
O315        O  0.24994788  0.45850925  0.61848365    -0.72200
O316        O  0.25004908  0.45848956  0.71515860    -0.72400
V317        V  0.24999239  0.03993302  0.66681918     1.35200
V318        V  0.24999583  0.46012279  0.66682069     1.35200
C319        C  0.24999605  0.00003065  0.73148667     0.77000
C320        C  0.24999489  0.00002574  0.60207557     0.77100
C321        C  0.15293476  0.00002627  0.66682008     0.77000
C322        C  0.34705327  0.00002910  0.66681812     0.76900
O323        O  0.17753418  0.29154491  0.66678623    -0.72200
O324        O  0.32247691  0.29154919  0.66684786    -0.72400
O325        O  0.25005090  0.29153954  0.61848059    -0.72300
O326        O  0.24995350  0.29157118  0.71515504    -0.72300
O327        O  0.25006023  0.20849048  0.71515839    -0.72300
O328        O  0.24996200  0.20850540  0.61848320    -0.72300
O329        O  0.32247913  0.20850646  0.66678952    -0.72200
O330        O  0.17753758  0.20850220  0.66685070    -0.72400
V331        V  0.25000479  0.28993139  0.66681746     1.35200
V332        V  0.25000911  0.21012110  0.66682044     1.35200
C333        C  0.15294771  0.25002268  0.66681898     0.77000
C334        C  0.34706617  0.25002802  0.66681851     0.77100
C335        C  0.25000602  0.25002150  0.60207453     0.77000
C336        C  0.25000537  0.25003233  0.73148569     0.76900
O337        O  0.45846665  0.92754239  0.16679025    -0.72200
O338        O  0.45846303  0.57248434  0.16684974    -0.72400
O339        O  0.45846495  0.00005780  0.11848301    -0.72300
O340        O  0.45845121  0.49996289  0.21515835    -0.72300
O341        O  0.04153187  0.00006808  0.21515529    -0.72300
O342        O  0.04149920  0.49997034  0.11848072    -0.72300
O343        O  0.04150579  0.57248731  0.16678656    -0.72200
O344        O  0.04150950  0.92754497  0.16684791    -0.72400
V345        V  0.46008135  0.00001263  0.16682033     1.35200
V346        V  0.03989168  0.50001690  0.16681770     1.35200
C347        C  0.99998844  0.90295555  0.16681893     0.77000
C348        C  0.99998379  0.59707398  0.16681843     0.77100
C349        C  0.99998088  0.50001376  0.10207445     0.77000
C350        C  0.49999336  0.50001609  0.23148579     0.76900
O351        O  0.04152919  0.75006616  0.21515662    -0.72200
O352        O  0.04149886  0.74996906  0.11848170    -0.72400
O353        O  0.04150867  0.82248582  0.16678799    -0.72300
O354        O  0.04150520  0.67754393  0.16684850    -0.72300
O355        O  0.45846259  0.67754365  0.16679091    -0.72300
O356        O  0.45846607  0.82248591  0.16684920    -0.72300
O357        O  0.45846479  0.75005856  0.11848334    -0.72200
O358        O  0.45844853  0.74996636  0.21515842    -0.72400
V359        V  0.03989051  0.75001541  0.16681878     1.35200
V360        V  0.46008037  0.75001434  0.16682051     1.35200
C361        C  0.49998996  0.75001770  0.23148656     0.77000
C362        C  0.99998077  0.75001316  0.10207509     0.77100
C363        C  0.99998774  0.84707402  0.16681864     0.77000
C364        C  0.99998371  0.65295561  0.16681932     0.76900
O365        O  0.20846761  0.57248348  0.16685338    -0.72200
O366        O  0.20846421  0.92754145  0.16678905    -0.72400
O367        O  0.20845341  0.49995908  0.21515962    -0.72300
O368        O  0.20846409  0.00006200  0.11848429    -0.72300
O369        O  0.29149823  0.49997117  0.11848115    -0.72300
O370        O  0.29153408  0.00006025  0.21515573    -0.72300
O371        O  0.29150695  0.92754157  0.16684565    -0.72200
O372        O  0.29151032  0.57248366  0.16678930    -0.72400
V373        V  0.21008219  0.50001199  0.16682162     1.35200
V374        V  0.28989240  0.00001316  0.16681804     1.35200
C375        C  0.24998923  0.59707177  0.16682147     0.77000
C376        C  0.24998524  0.90295339  0.16681685     0.77100
C377        C  0.24999586  0.50000995  0.23148670     0.77000
C378        C  0.24997949  0.50001916  0.10207533     0.76900
O379        O  0.29151022  0.67754312  0.16685012    -0.72200
O380        O  0.29150660  0.82248514  0.16678529    -0.72400
O381        O  0.29153022  0.75006913  0.21515592    -0.72300
O382        O  0.29150079  0.74996724  0.11848098    -0.72300
O383        O  0.20846665  0.75005645  0.11848256    -0.72300
O384        O  0.20844954  0.74996261  0.21515741    -0.72300
O385        O  0.20846386  0.82248256  0.16684828    -0.72200
O386        O  0.20846751  0.67754036  0.16679029    -0.72400
V387        V  0.28989207  0.75001503  0.16681809     1.35200
V388        V  0.21008179  0.75001092  0.16681961     1.35200
C389        C  0.24998933  0.65295350  0.16682085     0.77000
C390        C  0.24998488  0.84707193  0.16681653     0.77100
C391        C  0.24999080  0.75001811  0.23148568     0.77000
C392        C  0.24998264  0.75001432  0.10207439     0.76900
O393        O  0.42752952  0.95850068  0.33329106    -0.72200
O394        O  0.07247137  0.95849408  0.33322812    -0.72400
O395        O  0.50004796  0.95850329  0.38159611    -0.72300
O396        O  0.99994563  0.95847740  0.28492127    -0.72300
O397        O  0.50005364  0.54155808  0.28491996    -0.72300
O398        O  0.99996097  0.54153750  0.38159481    -0.72300
O399        O  0.07247555  0.54153686  0.33328798    -0.72200
O400        O  0.42753318  0.54154343  0.33322860    -0.72400
V401        V  0.49999952  0.96011385  0.33325905     1.35200
V402        V  0.00000516  0.53992410  0.33325782     1.35200
C403        C  0.40294319  0.50002265  0.33326010     0.77000
C404        C  0.09706165  0.50001456  0.33325826     0.77100
C405        C  0.50000444  0.50002085  0.39800281     0.77000
C406        C  0.49999758  0.00001729  0.26859168     0.76900
O407        O  0.50004333  0.79156121  0.28492069    -0.72200
O408        O  0.99995334  0.79154078  0.38159613    -0.72400
O409        O  0.07246650  0.79154339  0.33328805    -0.72300
O410        O  0.42752453  0.79154520  0.33323031    -0.72300
O411        O  0.42752236  0.70850246  0.33328976    -0.72300
O412        O  0.07246452  0.70850066  0.33323114    -0.72300
O413        O  0.50003852  0.70850664  0.38159699    -0.72200
O414        O  0.99994258  0.70848053  0.28492243    -0.72400
V415        V  0.49999618  0.78992789  0.33325879     1.35200
V416        V  0.49999278  0.71011759  0.33326005     1.35200
C417        C  0.49999230  0.75002006  0.26859252     0.77000
C418        C  0.49999701  0.75002389  0.39800396     0.77100
C419        C  0.09705370  0.75002185  0.33325960     0.77000
C420        C  0.40293532  0.75002410  0.33325974     0.76900
O421        O  0.17753106  0.54153619  0.33322816    -0.72200
O422        O  0.32247286  0.54154247  0.33328896    -0.72400
O423        O  0.25005129  0.54155429  0.28492022    -0.72300
O424        O  0.24995697  0.54153780  0.38159542    -0.72300
O425        O  0.25004916  0.95850358  0.38159773    -0.72300
O426        O  0.24995205  0.95847352  0.28492309    -0.72300
O427        O  0.32247424  0.95849982  0.33323141    -0.72200
O428        O  0.17753187  0.95849339  0.33329086    -0.72400
V429        V  0.25000236  0.53992284  0.33325821     1.35200
V430        V  0.25000271  0.96011248  0.33326075     1.35200
C431        C  0.15294326  0.50001443  0.33325909     0.77000
C432        C  0.34706165  0.50002191  0.33326028     0.77100
C433        C  0.25000039  0.50001266  0.26859263     0.77000
C434        C  0.25000305  0.50002157  0.39800397     0.76900
O435        O  0.24994040  0.70848134  0.28492136    -0.72200
O436        O  0.25004311  0.70850651  0.38159570    -0.72400
O437        O  0.17752320  0.70850103  0.33329085    -0.72300
O438        O  0.32246523  0.70850254  0.33322786    -0.72300
O439        O  0.32246609  0.79154527  0.33328929    -0.72300
O440        O  0.17752392  0.79154374  0.33322765    -0.72300
O441        O  0.24995001  0.79154064  0.38159527    -0.72200
O442        O  0.25004590  0.79156203  0.28491983    -0.72400
V443        V  0.24999372  0.71011795  0.33325885     1.35200
V444        V  0.24999563  0.78992823  0.33325797     1.35200
C445        C  0.24999265  0.75002090  0.26859158     0.77000
C446        C  0.24999778  0.75002355  0.39800287     0.77100
C447        C  0.15293536  0.75002224  0.33325941     0.77000
C448        C  0.34705379  0.75002404  0.33325892     0.76900
O449        O  0.42753207  0.54154450  0.50002793    -0.72200
O450        O  0.07247340  0.54154302  0.50004812    -0.72400
O451        O  0.50001703  0.54153910  0.45170103    -0.72300
O452        O  0.99998879  0.54154223  0.54837473    -0.72300
O453        O  0.50001483  0.95850882  0.54837598    -0.72300
O454        O  0.99998905  0.95850585  0.45170233    -0.72300
O455        O  0.07247250  0.95850321  0.50003030    -0.72200
O456        O  0.42753141  0.95850487  0.50004822    -0.72400
V457        V  0.50000277  0.53992173  0.50003791     1.35200
V458        V  0.00000195  0.96012618  0.50003914     1.35200
C459        C  0.40294291  0.50002479  0.50003860     0.77000
C460        C  0.09706181  0.50002297  0.50003918     0.77100
C461        C  0.50000357  0.50002204  0.43529393     0.77000
C462        C  0.50000050  0.50002603  0.56478310     0.76900
O463        O  0.50001412  0.79153988  0.45170307    -0.72200
O464        O  0.99999506  0.79153901  0.54837667    -0.72400
O465        O  0.07247492  0.79153905  0.50004746    -0.72300
O466        O  0.42753359  0.79154490  0.50003226    -0.72300
O467        O  0.42753148  0.70850521  0.50004900    -0.72300
O468        O  0.07247243  0.70849936  0.50003071    -0.72300
O469        O  0.50001572  0.70850576  0.54837691    -0.72200
O470        O  0.99998726  0.70850665  0.45170294    -0.72400
V471        V  0.50000450  0.78992016  0.50003990     1.35200
V472        V  0.50000169  0.71012474  0.50003991     1.35200
C473        C  0.49999949  0.75002348  0.43529520     0.77000
C474        C  0.50000631  0.75002254  0.56478455     0.77100
C475        C  0.09706250  0.75001846  0.50003894     0.77000
C476        C  0.40294372  0.75002551  0.50004035     0.76900
O477        O  0.17753148  0.54154293  0.50003025    -0.72200
O478        O  0.32247255  0.54154441  0.50004826    -0.72400
O479        O  0.25001412  0.54153979  0.45170245    -0.72300
O480        O  0.24998884  0.54154115  0.54837620    -0.72300
O481        O  0.25001316  0.95850792  0.54837719    -0.72300
O482        O  0.24999124  0.95850636  0.45170352    -0.72300
O483        O  0.32247305  0.95850470  0.50003258    -0.72200
O484        O  0.17753185  0.95850312  0.50004797    -0.72400
V485        V  0.25000188  0.53992155  0.50003938     1.35200
V486        V  0.25000245  0.96012605  0.50004032     1.35200
C487        C  0.15294293  0.50002292  0.50003911     0.77000
C488        C  0.34706164  0.50002473  0.50003991     0.77100
C489        C  0.25000287  0.50002283  0.43529519     0.77000
C490        C  0.24999903  0.50002487  0.56478445     0.76900
O491        O  0.17753160  0.79153846  0.50003008    -0.72200
O492        O  0.32247253  0.79154417  0.50004778    -0.72400
O493        O  0.25001285  0.79153915  0.45170205    -0.72300
O494        O  0.24999036  0.79153703  0.54837554    -0.72300
O495        O  0.25001824  0.70850379  0.54837563    -0.72300
O496        O  0.24999063  0.70850592  0.45170163    -0.72300
O497        O  0.32247486  0.70850448  0.50002982    -0.72200
O498        O  0.17753351  0.70849877  0.50004752    -0.72400
V499        V  0.25000187  0.78991906  0.50003885     1.35200
V500        V  0.25000437  0.71012364  0.50003859     1.35200
C501        C  0.15294373  0.75001810  0.50003880     0.77000
C502        C  0.34706252  0.75002508  0.50003931     0.77100
C503        C  0.25000059  0.75002290  0.43529406     0.77000
C504        C  0.25000488  0.75002042  0.56478336     0.76900
O505        O  0.04149544  0.50000291  0.95170212    -0.72200
O506        O  0.04149544  0.00002494  0.04837548    -0.72400
O507        O  0.04149944  0.92754306  0.00004703    -0.72300
O508        O  0.04149752  0.57248418  0.00003058    -0.72300
O509        O  0.45845785  0.57248342  0.00004622    -0.72300
O510        O  0.45845962  0.92754223  0.00003028    -0.72300
O511        O  0.45846222  0.50000114  0.04837529    -0.72200
O512        O  0.45846228  0.00002462  0.95170101    -0.72400
V513        V  0.03987632  0.50001368  0.00003878     1.35200
V514        V  0.46008097  0.50001284  0.00003818     1.35200
C515        C  0.99997913  0.50001473  0.93529378     0.77000
C516        C  0.99997909  0.50001317  0.06478319     0.77100
C517        C  0.99997975  0.90295386  0.00003900     0.77000
C518        C  0.99997756  0.59707266  0.00003826     0.76900
O519        O  0.04149554  0.75002520  0.04837612    -0.72200
O520        O  0.04149514  0.75000172  0.95170280    -0.72400
O521        O  0.04149932  0.82248364  0.00003063    -0.72300
O522        O  0.04149755  0.67754252  0.00004808    -0.72300
O523        O  0.45845778  0.67754302  0.00002833    -0.72300
O524        O  0.45845972  0.82248416  0.00004903    -0.72300
O525        O  0.45846191  0.75002941  0.95170166    -0.72200
O526        O  0.45846222  0.74999873  0.04837589    -0.72400
V527        V  0.03987627  0.75001311  0.00003940     1.35200
V528        V  0.46008086  0.75001372  0.00003876     1.35200
C529        C  0.99997923  0.75001214  0.06478381     0.77000
C530        C  0.99997878  0.75001726  0.93529449     0.77100
C531        C  0.99997967  0.84707272  0.00003967     0.77000
C532        C  0.99997745  0.65295395  0.00003814     0.76900
O533        O  0.20845939  0.57250047  0.00004853    -0.72200
O534        O  0.20845905  0.92755943  0.00002808    -0.72400
O535        O  0.20846099  0.50001408  0.04837575    -0.72300
O536        O  0.20846501  0.00004582  0.95170127    -0.72300
O537        O  0.29149817  0.50001847  0.95170372    -0.72300
O538        O  0.29149433  0.00004115  0.04837683    -0.72300
O539        O  0.29149875  0.92755928  0.00004923    -0.72200
O540        O  0.29149909  0.57250051  0.00003133    -0.72400
V541        V  0.21008149  0.50003000  0.00003845     1.35200
V542        V  0.28987695  0.00002992  0.00004028     1.35200
C543        C  0.24997918  0.59708927  0.00003924     0.77000
C544        C  0.24997881  0.90297048  0.00003898     0.77100
C545        C  0.24997760  0.50002517  0.06478409     0.77000
C546        C  0.24998250  0.50003345  0.93529473     0.76900
O547        O  0.29149515  0.75002114  0.95170220    -0.72200
O548        O  0.29149676  0.75003705  0.04837531    -0.72400
O549        O  0.29149891  0.67755924  0.00004534    -0.72300
O550        O  0.29149861  0.82250034  0.00003210    -0.72300
O551        O  0.20845891  0.82250012  0.00004784    -0.72300
O552        O  0.20845917  0.67755895  0.00002905    -0.72300
O553        O  0.20846349  0.75001391  0.04837555    -0.72200
O554        O  0.20846189  0.75004356  0.95170113    -0.72400
V555        V  0.28987671  0.75002966  0.00003869     1.35200
V556        V  0.21008122  0.75002938  0.00003841     1.35200
C557        C  0.24997891  0.75003300  0.93529389     0.77000
C558        C  0.24998070  0.75002183  0.06478320     0.77100
C559        C  0.24997914  0.65297035  0.00003769     0.77000
C560        C  0.24997874  0.84708911  0.00003974     0.76900
O561        O  0.04152840  0.49997586  0.78492167    -0.72200
O562        O  0.04149898  0.00006211  0.88159658    -0.72400
O563        O  0.04150772  0.92755073  0.83328726    -0.72300
O564        O  0.04150636  0.57249240  0.83323262    -0.72300
O565        O  0.45846370  0.57249357  0.83328721    -0.72300
O566        O  0.45846494  0.92755085  0.83322680    -0.72300
O567        O  0.45846478  0.49997588  0.88159374    -0.72200
O568        O  0.45844783  0.00007343  0.78491879    -0.72400
V569        V  0.03989030  0.50002103  0.83325944     1.35200
V570        V  0.46008011  0.50002277  0.83325664     1.35200
C571        C  0.49998903  0.50002573  0.76859123     0.77000
C572        C  0.99998076  0.50001749  0.89800255     0.77100
C573        C  0.99998670  0.90296264  0.83325715     0.77000
C574        C  0.99998526  0.59708114  0.83326014     0.76900
O575        O  0.45846658  0.82249347  0.83328771    -0.72200
O576        O  0.45846513  0.67755197  0.83322600    -0.72400
O577        O  0.45846515  0.74997555  0.88159383    -0.72300
O578        O  0.45845403  0.75007534  0.78491854    -0.72300
O579        O  0.04153476  0.74996775  0.78492411    -0.72300
O580        O  0.04149915  0.75006812  0.88159819    -0.72300
O581        O  0.04150777  0.67754973  0.83329398    -0.72200
O582        O  0.04150917  0.82249228  0.83322969    -0.72400
V583        V  0.46008263  0.75002336  0.83325659     1.35200
V584        V  0.03989279  0.75002032  0.83326144     1.35200
C585        C  0.99998775  0.84708105  0.83325808     0.77000
C586        C  0.99998586  0.65296270  0.83326017     0.77100
C587        C  0.49998072  0.75002068  0.89800337     0.77000
C588        C  0.49999675  0.75002190  0.76859238     0.76900
O589        O  0.20847066  0.57250771  0.83328794    -0.72200
O590        O  0.20846773  0.92756562  0.83322781    -0.72400
O591        O  0.20846949  0.49999110  0.88159452    -0.72300
O592        O  0.20845346  0.00008728  0.78491995    -0.72300
O593        O  0.29153412  0.49998021  0.78492290    -0.72300
O594        O  0.29150372  0.00008150  0.88159790    -0.72300
O595        O  0.29151046  0.92756319  0.83329319    -0.72200
O596        O  0.29151338  0.57250533  0.83322911    -0.72400
V597        V  0.21008526  0.50003730  0.83325760     1.35200
V598        V  0.28989569  0.00003347  0.83326071     1.35200
C599        C  0.24999239  0.59709471  0.83325823     0.77000
C600        C  0.24998872  0.90297629  0.83326044     0.77100
C601        C  0.24998526  0.50003574  0.89800358     0.77000
C602        C  0.24999471  0.50003272  0.76859245     0.76900
O603        O  0.29153809  0.74998634  0.78492342    -0.72200
O604        O  0.29150053  0.75007927  0.88159788    -0.72400
O605        O  0.29151320  0.67756453  0.83329058    -0.72300
O606        O  0.29151040  0.82250657  0.83323256    -0.72300
O607        O  0.20846766  0.82250677  0.83328619    -0.72300
O608        O  0.20847050  0.67756461  0.83322563    -0.72300
O609        O  0.20846640  0.74998980  0.88159276    -0.72200
O610        O  0.20845739  0.75008620  0.78491756    -0.72400
V611        V  0.28989558  0.75003506  0.83326099     1.35200
V612        V  0.21008529  0.75003619  0.83325555     1.35200
C613        C  0.25000013  0.75003543  0.76859151     0.77000
C614        C  0.24998146  0.75003413  0.89800270     0.77100
C615        C  0.24999212  0.65297638  0.83325801     0.77000
C616        C  0.24998880  0.84709480  0.83325982     0.76900
O617        O  0.99994238  0.54156717  0.71515640    -0.72200
O618        O  0.50004014  0.54154407  0.61848136    -0.72400
O619        O  0.42752271  0.54154968  0.66678719    -0.72300
O620        O  0.07246473  0.54154757  0.66684911    -0.72300
O621        O  0.07246520  0.95850494  0.66679050    -0.72300
O622        O  0.42752297  0.95850686  0.66684635    -0.72300
O623        O  0.99995178  0.95850986  0.61848183    -0.72200
O624        O  0.50004165  0.95848644  0.71515637    -0.72400
V625        V  0.49999316  0.53993230  0.66681852     1.35200
V626        V  0.49999459  0.96012193  0.66681874     1.35200
C627        C  0.49999110  0.50002662  0.73148538     0.77000
C628        C  0.49999742  0.50002688  0.60207424     0.77100
C629        C  0.40293474  0.50002847  0.66681697     0.77000
C630        C  0.09705317  0.50002614  0.66682003     0.76900
O631        O  0.99995512  0.79156335  0.71515780    -0.72200
O632        O  0.50005315  0.79154021  0.61848285    -0.72400
O633        O  0.42753629  0.79154745  0.66678844    -0.72300
O634        O  0.07247791  0.79154333  0.66685038    -0.72300
O635        O  0.07247798  0.70850060  0.66679072    -0.72300
O636        O  0.42753541  0.70850471  0.66684836    -0.72300
O637        O  0.99996223  0.70850606  0.61848317    -0.72200
O638        O  0.50005500  0.70848262  0.71515761    -0.72400
V639        V  0.50000655  0.78992867  0.66681995     1.35200
V640        V  0.50000716  0.71011837  0.66682003     1.35200
C641        C  0.50000247  0.75002271  0.73148665     0.77000
C642        C  0.50000757  0.75002292  0.60207567     0.77100
C643        C  0.40294770  0.75002668  0.66681833     0.77000
C644        C  0.09706611  0.75002198  0.66682015     0.76900
O645        O  0.24994233  0.54157027  0.71515681    -0.72200
O646        O  0.25003901  0.54154340  0.61848219    -0.72400
O647        O  0.17752193  0.54154795  0.66678817    -0.72300
O648        O  0.32246422  0.54155017  0.66684914    -0.72300
O649        O  0.32246610  0.95850752  0.66678857    -0.72300
O650        O  0.17752409  0.95850531  0.66685168    -0.72300
O651        O  0.24994807  0.95850915  0.61848363    -0.72200
O652        O  0.25004903  0.95848954  0.71515860    -0.72400
V653        V  0.24999249  0.53993309  0.66681918     1.35200
V654        V  0.24999589  0.96012273  0.66682069     1.35200
C655        C  0.24999616  0.50003068  0.73148667     0.77000
C656        C  0.24999492  0.50002580  0.60207557     0.77100
C657        C  0.15293482  0.50002619  0.66682008     0.77000
C658        C  0.34705323  0.50002906  0.66681812     0.76900
O659        O  0.17753415  0.79154490  0.66678624    -0.72200
O660        O  0.32247684  0.79154907  0.66684786    -0.72400
O661        O  0.25005074  0.79153950  0.61848059    -0.72300
O662        O  0.24995338  0.79157104  0.71515504    -0.72300
O663        O  0.25006008  0.70849034  0.71515839    -0.72300
O664        O  0.24996210  0.70850536  0.61848321    -0.72300
O665        O  0.32247909  0.70850635  0.66678954    -0.72200
O666        O  0.17753756  0.70850218  0.66685068    -0.72400
V667        V  0.25000470  0.78993130  0.66681746     1.35200
V668        V  0.25000906  0.71012101  0.66682044     1.35200
C669        C  0.15294770  0.75002261  0.66681898     0.77000
C670        C  0.34706612  0.75002799  0.66681852     0.77100
C671        C  0.25000603  0.75002143  0.60207453     0.77000
C672        C  0.25000531  0.75003218  0.73148569     0.76900
O673        O  0.95846675  0.42754249  0.16679023    -0.72200
O674        O  0.95846313  0.07248431  0.16684973    -0.72400
O675        O  0.95846508  0.50005783  0.11848302    -0.72300
O676        O  0.95845115  0.99996301  0.21515836    -0.72300
O677        O  0.54153191  0.50006819  0.21515527    -0.72300
O678        O  0.54149907  0.99997025  0.11848073    -0.72300
O679        O  0.54150580  0.07248735  0.16678656    -0.72200
O680        O  0.54150946  0.42754503  0.16684792    -0.72400
V681        V  0.96008140  0.50001266  0.16682032     1.35200
V682        V  0.53989164  0.00001687  0.16681769     1.35200
C683        C  0.49998836  0.40295562  0.16681893     0.77000
C684        C  0.49998387  0.09707400  0.16681843     0.77100
C685        C  0.49998083  0.00001363  0.10207446     0.77000
C686        C  0.99999330  0.00001616  0.23148582     0.76900
O687        O  0.54152904  0.25006625  0.21515662    -0.72200
O688        O  0.54149891  0.24996917  0.11848170    -0.72400
O689        O  0.54150866  0.32248588  0.16678799    -0.72300
O690        O  0.54150517  0.17754400  0.16684851    -0.72300
O691        O  0.95846257  0.17754364  0.16679088    -0.72300
O692        O  0.95846604  0.32248600  0.16684923    -0.72300
O693        O  0.95846487  0.25005870  0.11848333    -0.72200
O694        O  0.95844850  0.24996619  0.21515842    -0.72400
V695        V  0.53989047  0.25001548  0.16681879     1.35200
V696        V  0.96008035  0.25001438  0.16682050     1.35200
C697        C  0.99998993  0.25001757  0.23148656     0.77000
C698        C  0.49998079  0.25001323  0.10207509     0.77100
C699        C  0.49998779  0.34707409  0.16681865     0.77000
C700        C  0.49998363  0.15295563  0.16681931     0.76900
O701        O  0.70846765  0.07248350  0.16685340    -0.72200
O702        O  0.70846425  0.42754143  0.16678907    -0.72400
O703        O  0.70845345  0.99995901  0.21515963    -0.72300
O704        O  0.70846411  0.50006184  0.11848431    -0.72300
O705        O  0.79149817  0.99997115  0.11848115    -0.72300
O706        O  0.79153405  0.50006008  0.21515572    -0.72300
O707        O  0.79150699  0.42754147  0.16684563    -0.72200
O708        O  0.79151036  0.07248373  0.16678928    -0.72400
V709        V  0.71008220  0.00001203  0.16682162     1.35200
V710        V  0.78989241  0.50001308  0.16681804     1.35200
C711        C  0.74998928  0.09707181  0.16682147     0.77000
C712        C  0.74998526  0.40295332  0.16681685     0.77100
C713        C  0.74999590  0.00001000  0.23148672     0.77000
C714        C  0.74997945  0.00001923  0.10207533     0.76900
O715        O  0.79151022  0.17754316  0.16685010    -0.72200
O716        O  0.79150658  0.32248511  0.16678529    -0.72400
O717        O  0.79153023  0.25006905  0.21515593    -0.72300
O718        O  0.79150080  0.24996734  0.11848098    -0.72300
O719        O  0.70846666  0.25005623  0.11848257    -0.72300
O720        O  0.70844955  0.24996241  0.21515741    -0.72300
O721        O  0.70846384  0.32248242  0.16684842    -0.72200
O722        O  0.70846752  0.17754025  0.16679028    -0.72400
V723        V  0.78989207  0.25001504  0.16681809     1.35200
V724        V  0.71008179  0.25001076  0.16681964     1.35200
C725        C  0.74998935  0.15295350  0.16682084     0.77000
C726        C  0.74998484  0.34707186  0.16681659     0.77100
C727        C  0.74999081  0.25001807  0.23148568     0.77000
C728        C  0.74998265  0.25001425  0.10207439     0.76900
O729        O  0.92752956  0.45850070  0.33329108    -0.72200
O730        O  0.57247136  0.45849416  0.33322811    -0.72400
O731        O  0.00004814  0.45850335  0.38159610    -0.72300
O732        O  0.49994555  0.45847738  0.28492125    -0.72300
O733        O  0.00005355  0.04155808  0.28492007    -0.72300
O734        O  0.49996094  0.04153744  0.38159488    -0.72300
O735        O  0.57247556  0.04153680  0.33328805    -0.72200
O736        O  0.92753319  0.04154343  0.33322869    -0.72400
V737        V  0.99999960  0.46011380  0.33325903     1.35200
V738        V  0.50000514  0.03992413  0.33325790     1.35200
C739        C  0.90294322  0.00002271  0.33326016     0.77000
C740        C  0.59706163  0.00001457  0.33325827     0.77100
C741        C  0.00000459  0.00002090  0.39800284     0.77000
C742        C  0.99999756  0.50001726  0.26859165     0.76900
O743        O  0.00004330  0.29156106  0.28492069    -0.72200
O744        O  0.49995327  0.29154066  0.38159612    -0.72400
O745        O  0.57246644  0.29154323  0.33328803    -0.72300
O746        O  0.92752460  0.29154506  0.33323032    -0.72300
O747        O  0.92752233  0.20850234  0.33328975    -0.72300
O748        O  0.57246453  0.20850051  0.33323116    -0.72300
O749        O  0.00003847  0.20850653  0.38159699    -0.72200
O750        O  0.49994276  0.20848037  0.28492243    -0.72400
V751        V  0.99999622  0.28992770  0.33325879     1.35200
V752        V  0.99999281  0.21011742  0.33326005     1.35200
C753        C  0.99999228  0.25001990  0.26859252     0.77000
C754        C  0.99999694  0.25002369  0.39800396     0.77100
C755        C  0.59705367  0.25002169  0.33325960     0.77000
C756        C  0.90293532  0.25002407  0.33325974     0.76900
O757        O  0.67753107  0.04153609  0.33322817    -0.72200
O758        O  0.82247288  0.04154254  0.33328902    -0.72400
O759        O  0.75005130  0.04155420  0.28492030    -0.72300
O760        O  0.74995696  0.04153770  0.38159549    -0.72300
O761        O  0.75004918  0.45850368  0.38159774    -0.72300
O762        O  0.74995207  0.45847359  0.28492310    -0.72300
O763        O  0.82247423  0.45849975  0.33323146    -0.72200
O764        O  0.67753185  0.45849350  0.33329086    -0.72400
V765        V  0.75000237  0.03992274  0.33325827     1.35200
V766        V  0.75000269  0.46011256  0.33326076     1.35200
C767        C  0.65294327  0.00001423  0.33325908     0.77000
C768        C  0.84706169  0.00002193  0.33326036     0.77100
C769        C  0.75000043  0.00001262  0.26859267     0.77000
C770        C  0.75000301  0.00002142  0.39800400     0.76900
O771        O  0.74994047  0.20848129  0.28492135    -0.72200
O772        O  0.75004289  0.20850647  0.38159571    -0.72400
O773        O  0.67752317  0.20850086  0.33329082    -0.72300
O774        O  0.82246521  0.20850260  0.33322788    -0.72300
O775        O  0.82246599  0.29154533  0.33328927    -0.72300
O776        O  0.67752382  0.29154358  0.33322768    -0.72300
O777        O  0.74994997  0.29154060  0.38159526    -0.72200
O778        O  0.75004557  0.29156198  0.28491985    -0.72400
V779        V  0.74999368  0.21011783  0.33325885     1.35200
V780        V  0.74999547  0.28992812  0.33325797     1.35200
C781        C  0.74999260  0.25002086  0.26859159     0.77000
C782        C  0.74999770  0.25002353  0.39800287     0.77100
C783        C  0.65293531  0.25002206  0.33325941     0.77000
C784        C  0.84705375  0.25002404  0.33325892     0.76900
O785        O  0.92753205  0.04154457  0.50002793    -0.72200
O786        O  0.57247338  0.04154294  0.50004812    -0.72400
O787        O  0.00001700  0.04153913  0.45170103    -0.72300
O788        O  0.49998873  0.04154209  0.54837473    -0.72300
O789        O  0.00001484  0.45850896  0.54837598    -0.72300
O790        O  0.49998894  0.45850583  0.45170233    -0.72300
O791        O  0.57247254  0.45850328  0.50003030    -0.72200
O792        O  0.92753151  0.45850477  0.50004821    -0.72400
V793        V  0.00000273  0.03992165  0.50003792     1.35200
V794        V  0.50000196  0.46012624  0.50003915     1.35200
C795        C  0.90294290  0.00002480  0.50003860     0.77000
C796        C  0.59706175  0.00002292  0.50003918     0.77100
C797        C  0.00000372  0.00002194  0.43529394     0.77000
C798        C  0.00000047  0.00002598  0.56478310     0.76900
O799        O  0.00001421  0.29153976  0.45170306    -0.72200
O800        O  0.49999500  0.29153907  0.54837667    -0.72400
O801        O  0.57247493  0.29153906  0.50004747    -0.72300
O802        O  0.92753358  0.29154495  0.50003224    -0.72300
O803        O  0.92753151  0.20850523  0.50004900    -0.72300
O804        O  0.57247236  0.20849935  0.50003070    -0.72300
O805        O  0.00001578  0.20850580  0.54837691    -0.72200
O806        O  0.49998719  0.20850650  0.45170295    -0.72400
V807        V  0.00000450  0.28992017  0.50003990     1.35200
V808        V  0.00000175  0.21012468  0.50003992     1.35200
C809        C  0.99999944  0.25002342  0.43529521     0.77000
C810        C  0.00000639  0.25002250  0.56478455     0.77100
C811        C  0.59706247  0.25001841  0.50003894     0.77000
C812        C  0.90294372  0.25002549  0.50004035     0.76900
O813        O  0.67753145  0.04154283  0.50003025    -0.72200
O814        O  0.82247252  0.04154436  0.50004826    -0.72400
O815        O  0.75001406  0.04153961  0.45170245    -0.72300
O816        O  0.74998884  0.04154129  0.54837621    -0.72300
O817        O  0.75001298  0.45850791  0.54837719    -0.72300
O818        O  0.74999131  0.45850654  0.45170352    -0.72300
O819        O  0.82247305  0.45850476  0.50003260    -0.72200
O820        O  0.67753189  0.45850324  0.50004794    -0.72400
V821        V  0.75000185  0.03992152  0.50003937     1.35200
V822        V  0.75000243  0.46012613  0.50004032     1.35200
C823        C  0.65294287  0.00002279  0.50003911     0.77000
C824        C  0.84706162  0.00002474  0.50003991     0.77100
C825        C  0.75000276  0.00002266  0.43529521     0.77000
C826        C  0.74999898  0.00002493  0.56478444     0.76900
O827        O  0.67753158  0.29153836  0.50003007    -0.72200
O828        O  0.82247252  0.29154425  0.50004778    -0.72400
O829        O  0.75001286  0.29153917  0.45170204    -0.72300
O830        O  0.74999036  0.29153714  0.54837554    -0.72300
O831        O  0.75001825  0.20850387  0.54837564    -0.72300
O832        O  0.74999064  0.20850590  0.45170163    -0.72300
O833        O  0.82247484  0.20850453  0.50002982    -0.72200
O834        O  0.67753350  0.20849865  0.50004752    -0.72400
V835        V  0.75000186  0.28991910  0.50003885     1.35200
V836        V  0.75000438  0.21012361  0.50003860     1.35200
C837        C  0.65294371  0.25001802  0.50003880     0.77000
C838        C  0.84706250  0.25002521  0.50003931     0.77100
C839        C  0.75000060  0.25002290  0.43529406     0.77000
C840        C  0.75000489  0.25002048  0.56478336     0.76900
O841        O  0.54149552  0.00000283  0.95170213    -0.72200
O842        O  0.54149547  0.50002477  0.04837548    -0.72400
O843        O  0.54149941  0.42754307  0.00004701    -0.72300
O844        O  0.54149755  0.07248422  0.00003056    -0.72300
O845        O  0.95845771  0.07248339  0.00004622    -0.72300
O846        O  0.95845964  0.42754234  0.00003028    -0.72300
O847        O  0.95846220  0.00000095  0.04837530    -0.72200
O848        O  0.95846219  0.50002476  0.95170102    -0.72400
V849        V  0.53987636  0.00001368  0.00003878     1.35200
V850        V  0.96008091  0.00001271  0.00003818     1.35200
C851        C  0.49997921  0.00001472  0.93529378     0.77000
C852        C  0.49997909  0.00001303  0.06478319     0.77100
C853        C  0.49997970  0.40295394  0.00003900     0.77000
C854        C  0.49997752  0.09707267  0.00003826     0.76900
O855        O  0.54149552  0.25002533  0.04837613    -0.72200
O856        O  0.54149526  0.25000152  0.95170282    -0.72400
O857        O  0.54149928  0.32248370  0.00003059    -0.72300
O858        O  0.54149758  0.17754255  0.00004826    -0.72300
O859        O  0.95845774  0.17754313  0.00002833    -0.72300
O860        O  0.95845970  0.32248428  0.00004904    -0.72300
O861        O  0.95846188  0.25002953  0.95170166    -0.72200
O862        O  0.95846230  0.24999881  0.04837589    -0.72400
V863        V  0.53987632  0.25001314  0.00003943     1.35200
V864        V  0.96008086  0.25001383  0.00003877     1.35200
C865        C  0.49997925  0.25001217  0.06478382     0.77000
C866        C  0.49997886  0.25001718  0.93529449     0.77100
C867        C  0.49997963  0.34707279  0.00003966     0.77000
C868        C  0.49997754  0.15295397  0.00003820     0.76900
O869        O  0.70845941  0.07250053  0.00004855    -0.72200
O870        O  0.70845907  0.42755939  0.00002810    -0.72400
O871        O  0.70846100  0.00001398  0.04837574    -0.72300
O872        O  0.70846492  0.50004573  0.95170126    -0.72300
O873        O  0.79149818  0.00001844  0.95170372    -0.72300
O874        O  0.79149418  0.50004107  0.04837682    -0.72300
O875        O  0.79149877  0.42755926  0.00004922    -0.72200
O876        O  0.79149911  0.07250052  0.00003132    -0.72400
V877        V  0.71008148  0.00003004  0.00003845     1.35200
V878        V  0.78987694  0.50002991  0.00004028     1.35200
C879        C  0.74997921  0.09708930  0.00003924     0.77000
C880        C  0.74997885  0.40297045  0.00003898     0.77100
C881        C  0.74997757  0.00002522  0.06478409     0.77000
C882        C  0.74998252  0.00003346  0.93529473     0.76900
O883        O  0.79149516  0.25002120  0.95170219    -0.72200
O884        O  0.79149678  0.25003685  0.04837531    -0.72400
O885        O  0.79149892  0.17755922  0.00004532    -0.72300
O886        O  0.79149863  0.32250029  0.00003212    -0.72300
O887        O  0.70845893  0.32250012  0.00004784    -0.72300
O888        O  0.70845918  0.17755900  0.00002905    -0.72300
O889        O  0.70846351  0.25001405  0.04837555    -0.72200
O890        O  0.70846190  0.25004367  0.95170114    -0.72400
V891        V  0.78987672  0.25002961  0.00003869     1.35200
V892        V  0.71008124  0.25002943  0.00003841     1.35200
C893        C  0.74997887  0.25003314  0.93529388     0.77000
C894        C  0.74998072  0.25002180  0.06478320     0.77100
C895        C  0.74997915  0.15297037  0.00003768     0.77000
C896        C  0.74997877  0.34708909  0.00003974     0.76900
O897        O  0.54152853  0.99997597  0.78492167    -0.72200
O898        O  0.54149891  0.50006201  0.88159657    -0.72400
O899        O  0.54150768  0.42755076  0.83328727    -0.72300
O900        O  0.54150642  0.07249237  0.83323263    -0.72300
O901        O  0.95846361  0.07249347  0.83328721    -0.72300
O902        O  0.95846491  0.42755091  0.83322679    -0.72300
O903        O  0.95846486  0.99997597  0.88159373    -0.72200
O904        O  0.95844769  0.50007348  0.78491879    -0.72400
V905        V  0.53989033  0.00002105  0.83325944     1.35200
V906        V  0.96008012  0.00002271  0.83325664     1.35200
C907        C  0.99998904  0.00002573  0.76859123     0.77000
C908        C  0.49998081  0.00001762  0.89800255     0.77100
C909        C  0.49998668  0.40296270  0.83325715     0.77000
C910        C  0.49998520  0.09708109  0.83326014     0.76900
O911        O  0.95846657  0.32249357  0.83328773    -0.72200
O912        O  0.95846507  0.17755201  0.83322598    -0.72400
O913        O  0.95846512  0.24997548  0.88159383    -0.72300
O914        O  0.95845400  0.25007548  0.78491855    -0.72300
O915        O  0.54153471  0.24996789  0.78492411    -0.72300
O916        O  0.54149926  0.25006800  0.88159818    -0.72300
O917        O  0.54150778  0.17754971  0.83329395    -0.72200
O918        O  0.54150923  0.32249237  0.83322971    -0.72400
V919        V  0.96008261  0.25002343  0.83325659     1.35200
V920        V  0.53989281  0.25002036  0.83326143     1.35200
C921        C  0.49998778  0.34708114  0.83325809     0.77000
C922        C  0.49998596  0.15296268  0.83326017     0.77100
C923        C  0.99998070  0.25002058  0.89800337     0.77000
C924        C  0.99999671  0.25002196  0.76859238     0.76900
O925        O  0.70847068  0.07250767  0.83328790    -0.72200
O926        O  0.70846764  0.42756559  0.83322778    -0.72400
O927        O  0.70846953  0.99999129  0.88159452    -0.72300
O928        O  0.70845347  0.50008748  0.78491994    -0.72300
O929        O  0.79153415  0.99998030  0.78492289    -0.72300
O930        O  0.79150375  0.50008149  0.88159791    -0.72300
O931        O  0.79151040  0.42756317  0.83329320    -0.72200
O932        O  0.79151340  0.07250530  0.83322912    -0.72400
V933        V  0.71008529  0.00003730  0.83325760     1.35200
V934        V  0.78989569  0.50003346  0.83326072     1.35200
C935        C  0.74999242  0.09709467  0.83325822     0.77000
C936        C  0.74998858  0.40297626  0.83326043     0.77100
C937        C  0.74998529  0.00003582  0.89800358     0.77000
C938        C  0.74999473  0.00003267  0.76859245     0.76900
O939        O  0.79153812  0.24998636  0.78492342    -0.72200
O940        O  0.79150045  0.25007929  0.88159788    -0.72400
O941        O  0.79151321  0.17756442  0.83329058    -0.72300
O942        O  0.79151037  0.32250651  0.83323256    -0.72300
O943        O  0.70846763  0.32250661  0.83328619    -0.72300
O944        O  0.70847049  0.17756448  0.83322563    -0.72300
O945        O  0.70846631  0.24998980  0.88159277    -0.72200
O946        O  0.70845741  0.25008620  0.78491756    -0.72400
V947        V  0.78989558  0.25003498  0.83326099     1.35200
V948        V  0.71008528  0.25003607  0.83325554     1.35200
C949        C  0.75000016  0.25003554  0.76859151     0.77000
C950        C  0.74998141  0.25003424  0.89800270     0.77100
C951        C  0.74999212  0.15297628  0.83325801     0.77000
C952        C  0.74998882  0.34709470  0.83325982     0.76900
O953        O  0.49994253  0.04156714  0.71515640    -0.72200
O954        O  0.00004008  0.04154400  0.61848136    -0.72400
O955        O  0.92752273  0.04154958  0.66678720    -0.72300
O956        O  0.57246468  0.04154766  0.66684909    -0.72300
O957        O  0.57246524  0.45850485  0.66679051    -0.72300
O958        O  0.92752297  0.45850698  0.66684634    -0.72300
O959        O  0.49995182  0.45850993  0.61848183    -0.72200
O960        O  0.00004164  0.45848647  0.71515637    -0.72400
V961        V  0.99999313  0.03993220  0.66681852     1.35200
V962        V  0.99999460  0.46012201  0.66681874     1.35200
C963        C  0.99999116  0.00002660  0.73148538     0.77000
C964        C  0.99999740  0.00002671  0.60207424     0.77100
C965        C  0.90293470  0.00002847  0.66681698     0.77000
C966        C  0.59705315  0.00002626  0.66682003     0.76900
O967        O  0.49995506  0.29156322  0.71515778    -0.72200
O968        O  0.00005329  0.29154012  0.61848287    -0.72400
O969        O  0.92753632  0.29154731  0.66678843    -0.72300
O970        O  0.57247788  0.29154323  0.66685039    -0.72300
O971        O  0.57247801  0.20850051  0.66679071    -0.72300
O972        O  0.92753533  0.20850458  0.66684835    -0.72300
O973        O  0.49996218  0.20850598  0.61848316    -0.72200
O974        O  0.00005491  0.20848249  0.71515763    -0.72400
V975        V  0.00000653  0.28992850  0.66681995     1.35200
V976        V  0.00000709  0.21011820  0.66682002     1.35200
C977        C  0.00000242  0.25002262  0.73148665     0.77000
C978        C  0.00000765  0.25002296  0.60207567     0.77100
C979        C  0.90294768  0.25002663  0.66681833     0.77000
C980        C  0.59706612  0.25002184  0.66682015     0.76900
O981        O  0.74994238  0.04157024  0.71515681    -0.72200
O982        O  0.75003895  0.04154330  0.61848222    -0.72400
O983        O  0.67752196  0.04154801  0.66678818    -0.72300
O984        O  0.82246422  0.04155025  0.66684913    -0.72300
O985        O  0.82246607  0.45850744  0.66678857    -0.72300
O986        O  0.67752413  0.45850523  0.66685168    -0.72300
O987        O  0.74994809  0.45850925  0.61848365    -0.72200
O988        O  0.75004905  0.45848956  0.71515860    -0.72400
V989        V  0.74999251  0.03993302  0.66681918     1.35200
V990        V  0.74999590  0.46012278  0.66682069     1.35200
C991        C  0.74999613  0.00003065  0.73148667     0.77000
C992        C  0.74999484  0.00002579  0.60207557     0.77100
C993        C  0.65293482  0.00002628  0.66682008     0.77000
C994        C  0.84705323  0.00002909  0.66681812     0.76900
O995        O  0.67753414  0.29154490  0.66678624    -0.72200
O996        O  0.82247688  0.29154921  0.66684786    -0.72400
O997        O  0.75005075  0.29153954  0.61848059    -0.72300
O998        O  0.74995340  0.29157118  0.71515503    -0.72300
O999        O  0.75006009  0.20849048  0.71515839    -0.72300
O1000       O  0.74996212  0.20850540  0.61848320    -0.72300
O1001       O  0.82247907  0.20850648  0.66678954    -0.72200
O1002       O  0.67753760  0.20850218  0.66685068    -0.72400
V1003       V  0.75000471  0.28993140  0.66681746     1.35200
V1004       V  0.75000908  0.21012111  0.66682044     1.35200
C1005       C  0.65294771  0.25002265  0.66681898     0.77000
C1006       C  0.84706613  0.25002804  0.66681852     0.77100
C1007       C  0.75000605  0.25002150  0.60207453     0.77000
C1008       C  0.75000532  0.25003233  0.73148569     0.76900
O1009       O  0.95846674  0.92754241  0.16679024    -0.72200
O1010       O  0.95846308  0.57248432  0.16684974    -0.72400
O1011       O  0.95846500  0.00005780  0.11848301    -0.72300
O1012       O  0.95845121  0.49996290  0.21515834    -0.72300
O1013       O  0.54153196  0.00006808  0.21515531    -0.72300
O1014       O  0.54149909  0.49997033  0.11848074    -0.72300
O1015       O  0.54150574  0.57248730  0.16678656    -0.72200
O1016       O  0.54150939  0.92754500  0.16684791    -0.72400
V1017       V  0.96008135  0.00001263  0.16682032     1.35200
V1018       V  0.53989158  0.50001690  0.16681769     1.35200
C1019       C  0.49998835  0.90295555  0.16681893     0.77000
C1020       C  0.49998387  0.59707399  0.16681843     0.77100
C1021       C  0.49998082  0.50001369  0.10207445     0.77000
C1022       C  0.99999332  0.50001613  0.23148581     0.76900
O1023       O  0.54152921  0.75006616  0.21515663    -0.72200
O1024       O  0.54149891  0.74996906  0.11848168    -0.72400
O1025       O  0.54150879  0.82248586  0.16678799    -0.72300
O1026       O  0.54150532  0.67754392  0.16684850    -0.72300
O1027       O  0.95846248  0.67754363  0.16679091    -0.72300
O1028       O  0.95846594  0.82248596  0.16684920    -0.72300
O1029       O  0.95846475  0.75005856  0.11848331    -0.72200
O1030       O  0.95844851  0.74996636  0.21515842    -0.72400
V1031       V  0.53989064  0.75001541  0.16681878     1.35200
V1032       V  0.96008024  0.75001435  0.16682051     1.35200
C1033       C  0.99998996  0.75001770  0.23148656     0.77000
C1034       C  0.49998081  0.75001316  0.10207509     0.77100
C1035       C  0.49998783  0.84707402  0.16681864     0.77000
C1036       C  0.49998372  0.65295561  0.16681932     0.76900
O1037       O  0.70846747  0.57248350  0.16685338    -0.72200
O1038       O  0.70846421  0.92754143  0.16678905    -0.72400
O1039       O  0.70845337  0.49995908  0.21515966    -0.72300
O1040       O  0.70846404  0.00006200  0.11848431    -0.72300
O1041       O  0.79149824  0.49997118  0.11848114    -0.72300
O1042       O  0.79153413  0.00006025  0.21515574    -0.72300
O1043       O  0.79150695  0.92754159  0.16684565    -0.72200
O1044       O  0.79151017  0.57248365  0.16678930    -0.72400
V1045       V  0.71008213  0.50001199  0.16682162     1.35200
V1046       V  0.78989248  0.00001316  0.16681804     1.35200
C1047       C  0.74998913  0.59707177  0.16682147     0.77000
C1048       C  0.74998525  0.90295338  0.16681685     0.77100
C1049       C  0.74999584  0.50000999  0.23148672     0.77000
C1050       C  0.74997953  0.50001916  0.10207533     0.76900
O1051       O  0.79151025  0.67754308  0.16685012    -0.72200
O1052       O  0.79150679  0.82248517  0.16678527    -0.72400
O1053       O  0.79153028  0.75006913  0.21515595    -0.72300
O1054       O  0.79150084  0.74996723  0.11848096    -0.72300
O1055       O  0.70846670  0.75005649  0.11848259    -0.72300
O1056       O  0.70844959  0.74996258  0.21515739    -0.72300
O1057       O  0.70846405  0.82248252  0.16684843    -0.72200
O1058       O  0.70846755  0.67754040  0.16679028    -0.72400
V1059       V  0.78989223  0.75001502  0.16681809     1.35200
V1060       V  0.71008194  0.75001093  0.16681964     1.35200
C1061       C  0.74998930  0.65295350  0.16682084     0.77000
C1062       C  0.74998505  0.84707193  0.16681658     0.77100
C1063       C  0.74999083  0.75001810  0.23148568     0.77000
C1064       C  0.74998263  0.75001433  0.10207439     0.76900
O1065       O  0.92752953  0.95850070  0.33329106    -0.72200
O1066       O  0.57247134  0.95849409  0.33322811    -0.72400
O1067       O  0.00004801  0.95850329  0.38159611    -0.72300
O1068       O  0.49994550  0.95847740  0.28492127    -0.72300
O1069       O  0.00005345  0.54155807  0.28492001    -0.72300
O1070       O  0.49996107  0.54153750  0.38159480    -0.72300
O1071       O  0.57247560  0.54153688  0.33328797    -0.72200
O1072       O  0.92753318  0.54154342  0.33322862    -0.72400
V1073       V  0.99999956  0.96011386  0.33325904     1.35200
V1074       V  0.50000521  0.53992411  0.33325779     1.35200
C1075       C  0.90294323  0.50002264  0.33326015     0.77000
C1076       C  0.59706165  0.50001461  0.33325827     0.77100
C1077       C  0.00000450  0.50002085  0.39800281     0.77000
C1078       C  0.99999765  0.00001729  0.26859168     0.76900
O1079       O  0.00004340  0.79156121  0.28492069    -0.72200
O1080       O  0.49995351  0.79154078  0.38159613    -0.72400
O1081       O  0.57246650  0.79154341  0.33328803    -0.72300
O1082       O  0.92752446  0.79154520  0.33323029    -0.72300
O1083       O  0.92752229  0.70850246  0.33328978    -0.72300
O1084       O  0.57246453  0.70850068  0.33323116    -0.72300
O1085       O  0.00003857  0.70850664  0.38159698    -0.72200
O1086       O  0.49994274  0.70848053  0.28492243    -0.72400
V1087       V  0.99999613  0.78992789  0.33325879     1.35200
V1088       V  0.99999273  0.71011759  0.33326005     1.35200
C1089       C  0.99999229  0.75002006  0.26859252     0.77000
C1090       C  0.99999694  0.75002389  0.39800396     0.77100
C1091       C  0.59705368  0.75002187  0.33325960     0.77000
C1092       C  0.90293525  0.75002410  0.33325974     0.76900
O1093       O  0.67753101  0.54153621  0.33322817    -0.72200
O1094       O  0.82247283  0.54154248  0.33328903    -0.72400
O1095       O  0.75005123  0.54155428  0.28492029    -0.72300
O1096       O  0.74995680  0.54153781  0.38159548    -0.72300
O1097       O  0.75004905  0.95850357  0.38159773    -0.72300
O1098       O  0.74995213  0.95847352  0.28492309    -0.72300
O1099       O  0.82247422  0.95849981  0.33323148    -0.72200
O1100       O  0.67753182  0.95849338  0.33329084    -0.72400
V1101       V  0.75000229  0.53992284  0.33325827     1.35200
V1102       V  0.75000267  0.96011247  0.33326076     1.35200
C1103       C  0.65294326  0.50001437  0.33325909     0.77000
C1104       C  0.84706168  0.50002195  0.33326036     0.77100
C1105       C  0.75000042  0.50001267  0.26859267     0.77000
C1106       C  0.75000301  0.50002157  0.39800400     0.76900
O1107       O  0.74994050  0.70848134  0.28492136    -0.72200
O1108       O  0.75004302  0.70850651  0.38159570    -0.72400
O1109       O  0.67752313  0.70850103  0.33329082    -0.72300
O1110       O  0.82246520  0.70850254  0.33322788    -0.72300
O1111       O  0.82246607  0.79154527  0.33328929    -0.72300
O1112       O  0.67752388  0.79154373  0.33322766    -0.72300
O1113       O  0.74994996  0.79154064  0.38159526    -0.72200
O1114       O  0.75004575  0.79156203  0.28491983    -0.72400
V1115       V  0.74999369  0.71011795  0.33325885     1.35200
V1116       V  0.74999559  0.78992823  0.33325797     1.35200
C1117       C  0.74999262  0.75002090  0.26859158     0.77000
C1118       C  0.74999776  0.75002355  0.39800287     0.77100
C1119       C  0.65293531  0.75002224  0.33325940     0.77000
C1120       C  0.84705376  0.75002403  0.33325892     0.76900
O1121       O  0.92753220  0.54154448  0.50002795    -0.72200
O1122       O  0.57247328  0.54154300  0.50004814    -0.72400
O1123       O  0.00001696  0.54153910  0.45170103    -0.72300
O1124       O  0.49998857  0.54154224  0.54837473    -0.72300
O1125       O  0.00001467  0.95850882  0.54837598    -0.72300
O1126       O  0.49998885  0.95850585  0.45170233    -0.72300
O1127       O  0.57247255  0.95850322  0.50003027    -0.72200
O1128       O  0.92753144  0.95850487  0.50004819    -0.72400
V1129       V  0.00000288  0.53992173  0.50003791     1.35200
V1130       V  0.50000195  0.96012617  0.50003914     1.35200
C1131       C  0.90294300  0.50002477  0.50003861     0.77000
C1132       C  0.59706171  0.50002295  0.50003919     0.77100
C1133       C  0.00000357  0.50002204  0.43529393     0.77000
C1134       C  0.00000060  0.50002603  0.56478310     0.76900
O1135       O  0.00001411  0.79153988  0.45170307    -0.72200
O1136       O  0.49999520  0.79153901  0.54837667    -0.72400
O1137       O  0.57247499  0.79153906  0.50004745    -0.72300
O1138       O  0.92753354  0.79154487  0.50003224    -0.72300
O1139       O  0.92753150  0.70850518  0.50004900    -0.72300
O1140       O  0.57247236  0.70849937  0.50003071    -0.72300
O1141       O  0.00001585  0.70850576  0.54837691    -0.72200
O1142       O  0.49998713  0.70850665  0.45170294    -0.72400
V1143       V  0.00000443  0.78992015  0.50003990     1.35200
V1144       V  0.00000176  0.71012473  0.50003991     1.35200
C1145       C  0.99999950  0.75002348  0.43529520     0.77000
C1146       C  0.00000630  0.75002254  0.56478455     0.77100
C1147       C  0.59706249  0.75001846  0.50003894     0.77000
C1148       C  0.90294369  0.75002546  0.50004034     0.76900
O1149       O  0.67753139  0.54154294  0.50003026    -0.72200
O1150       O  0.82247257  0.54154443  0.50004826    -0.72400
O1151       O  0.75001396  0.54153977  0.45170246    -0.72300
O1152       O  0.74998878  0.54154116  0.54837620    -0.72300
O1153       O  0.75001304  0.95850802  0.54837719    -0.72300
O1154       O  0.74999112  0.95850636  0.45170352    -0.72300
O1155       O  0.82247302  0.95850467  0.50003258    -0.72200
O1156       O  0.67753184  0.95850311  0.50004797    -0.72400
V1157       V  0.75000182  0.53992156  0.50003938     1.35200
V1158       V  0.75000240  0.96012606  0.50004033     1.35200
C1159       C  0.65294285  0.50002292  0.50003911     0.77000
C1160       C  0.84706168  0.50002476  0.50003991     0.77100
C1161       C  0.75000281  0.50002281  0.43529521     0.77000
C1162       C  0.74999902  0.50002487  0.56478445     0.76900
O1163       O  0.67753157  0.79153843  0.50003008    -0.72200
O1164       O  0.82247251  0.79154418  0.50004778    -0.72400
O1165       O  0.75001275  0.79153915  0.45170205    -0.72300
O1166       O  0.74999025  0.79153707  0.54837553    -0.72300
O1167       O  0.75001810  0.70850383  0.54837564    -0.72300
O1168       O  0.74999050  0.70850592  0.45170163    -0.72300
O1169       O  0.82247477  0.70850450  0.50002982    -0.72200
O1170       O  0.67753342  0.70849874  0.50004752    -0.72400
V1171       V  0.75000181  0.78991906  0.50003885     1.35200
V1172       V  0.75000426  0.71012364  0.50003859     1.35200
C1173       C  0.65294368  0.75001807  0.50003880     0.77000
C1174       C  0.84706247  0.75002509  0.50003931     0.77100
C1175       C  0.75000053  0.75002290  0.43529406     0.77000
C1176       C  0.75000474  0.75002040  0.56478336     0.76900
O1177       O  0.54149562  0.50000292  0.95170212    -0.72200
O1178       O  0.54149547  0.00002493  0.04837549    -0.72400
O1179       O  0.54149931  0.92754308  0.00004703    -0.72300
O1180       O  0.54149756  0.57248418  0.00003059    -0.72300
O1181       O  0.95845781  0.57248346  0.00004622    -0.72300
O1182       O  0.95845972  0.92754225  0.00003028    -0.72300
O1183       O  0.95846215  0.50000120  0.04837531    -0.72200
O1184       O  0.95846225  0.00002461  0.95170101    -0.72400
V1185       V  0.53987644  0.50001367  0.00003878     1.35200
V1186       V  0.96008085  0.50001285  0.00003818     1.35200
C1187       C  0.49997926  0.50001473  0.93529378     0.77000
C1188       C  0.49997909  0.50001305  0.06478319     0.77100
C1189       C  0.49997965  0.90295385  0.00003900     0.77000
C1190       C  0.49997748  0.59707263  0.00003827     0.76900
O1191       O  0.54149547  0.75002523  0.04837612    -0.72200
O1192       O  0.54149518  0.75000168  0.95170281    -0.72400
O1193       O  0.54149945  0.82248368  0.00003062    -0.72300
O1194       O  0.54149749  0.67754248  0.00004824    -0.72300
O1195       O  0.95845786  0.67754308  0.00002835    -0.72300
O1196       O  0.95845960  0.82248422  0.00004903    -0.72300
O1197       O  0.95846187  0.75002942  0.95170167    -0.72200
O1198       O  0.95846229  0.74999875  0.04837588    -0.72400
V1199       V  0.53987635  0.75001309  0.00003943     1.35200
V1200       V  0.96008081  0.75001376  0.00003877     1.35200
C1201       C  0.49997911  0.75001215  0.06478381     0.77000
C1202       C  0.49997879  0.75001725  0.93529449     0.77100
C1203       C  0.49997977  0.84707271  0.00003967     0.77000
C1204       C  0.49997747  0.65295390  0.00003820     0.76900
O1205       O  0.70845934  0.57250048  0.00004853    -0.72200
O1206       O  0.70845900  0.92755943  0.00002808    -0.72400
O1207       O  0.70846093  0.50001408  0.04837575    -0.72300
O1208       O  0.70846494  0.00004582  0.95170128    -0.72300
O1209       O  0.79149819  0.50001847  0.95170372    -0.72300
O1210       O  0.79149422  0.00004114  0.04837683    -0.72300
O1211       O  0.79149867  0.92755928  0.00004923    -0.72200
O1212       O  0.79149907  0.57250049  0.00003133    -0.72400
V1213       V  0.71008145  0.50003000  0.00003844     1.35200
V1214       V  0.78987690  0.00002992  0.00004028     1.35200
C1215       C  0.74997929  0.59708926  0.00003924     0.77000
C1216       C  0.74997868  0.90297048  0.00003898     0.77100
C1217       C  0.74997752  0.50002517  0.06478409     0.77000
C1218       C  0.74998255  0.50003345  0.93529473     0.76900
O1219       O  0.79149509  0.75002115  0.95170220    -0.72200
O1220       O  0.79149667  0.75003705  0.04837530    -0.72400
O1221       O  0.79149903  0.67755924  0.00004534    -0.72300
O1222       O  0.79149854  0.82250035  0.00003210    -0.72300
O1223       O  0.70845887  0.82250010  0.00004784    -0.72300
O1224       O  0.70845932  0.67755895  0.00002905    -0.72300
O1225       O  0.70846343  0.75001391  0.04837555    -0.72200
O1226       O  0.70846185  0.75004356  0.95170113    -0.72400
V1227       V  0.78987668  0.75002967  0.00003869     1.35200
V1228       V  0.71008126  0.75002937  0.00003841     1.35200
C1229       C  0.74997879  0.75003300  0.93529388     0.77000
C1230       C  0.74998065  0.75002183  0.06478320     0.77100
C1231       C  0.74997914  0.65297034  0.00003769     0.77000
C1232       C  0.74997873  0.84708912  0.00003974     0.76900
O1233       O  0.54152845  0.49997586  0.78492165    -0.72200
O1234       O  0.54149887  0.00006210  0.88159656    -0.72400
O1235       O  0.54150766  0.92755076  0.83328727    -0.72300
O1236       O  0.54150643  0.57249240  0.83323262    -0.72300
O1237       O  0.95846363  0.57249357  0.83328721    -0.72300
O1238       O  0.95846501  0.92755089  0.83322681    -0.72300
O1239       O  0.95846469  0.49997588  0.88159373    -0.72200
O1240       O  0.95844775  0.00007343  0.78491880    -0.72400
V1241       V  0.53989040  0.50002103  0.83325943     1.35200
V1242       V  0.96008000  0.50002276  0.83325663     1.35200
C1243       C  0.99998901  0.50002573  0.76859123     0.77000
C1244       C  0.49998088  0.50001749  0.89800255     0.77100
C1245       C  0.49998663  0.90296264  0.83325715     0.77000
C1246       C  0.49998532  0.59708114  0.83326014     0.76900
O1247       O  0.95846645  0.82249351  0.83328771    -0.72200
O1248       O  0.95846506  0.67755196  0.83322599    -0.72400
O1249       O  0.95846501  0.74997555  0.88159385    -0.72300
O1250       O  0.95845405  0.75007533  0.78491852    -0.72300
O1251       O  0.54153474  0.74996775  0.78492409    -0.72300
O1252       O  0.54149929  0.75006812  0.88159821    -0.72300
O1253       O  0.54150785  0.67754972  0.83329398    -0.72200
O1254       O  0.54150931  0.82249232  0.83322969    -0.72400
V1255       V  0.96008250  0.75002335  0.83325658     1.35200
V1256       V  0.53989293  0.75002032  0.83326143     1.35200
C1257       C  0.49998790  0.84708105  0.83325808     0.77000
C1258       C  0.49998592  0.65296271  0.83326017     0.77100
C1259       C  0.99998056  0.75002068  0.89800337     0.77000
C1260       C  0.99999679  0.75002190  0.76859237     0.76900
O1261       O  0.70847081  0.57250770  0.83328794    -0.72200
O1262       O  0.70846763  0.92756560  0.83322781    -0.72400
O1263       O  0.70846957  0.49999111  0.88159452    -0.72300
O1264       O  0.70845344  0.00008728  0.78491993    -0.72300
O1265       O  0.79153420  0.49998021  0.78492289    -0.72300
O1266       O  0.79150367  0.00008150  0.88159790    -0.72300
O1267       O  0.79151035  0.92756319  0.83329319    -0.72200
O1268       O  0.79151356  0.57250533  0.83322911    -0.72400
V1269       V  0.71008533  0.50003731  0.83325760     1.35200
V1270       V  0.78989559  0.00003348  0.83326072     1.35200
C1271       C  0.74999264  0.59709469  0.83325823     0.77000
C1272       C  0.74998855  0.90297627  0.83326044     0.77100
C1273       C  0.74998532  0.50003574  0.89800358     0.77000
C1274       C  0.74999476  0.50003272  0.76859246     0.76900
O1275       O  0.79153796  0.74998634  0.78492342    -0.72200
O1276       O  0.79150046  0.75007927  0.88159788    -0.72400
O1277       O  0.79151331  0.67756455  0.83329058    -0.72300
O1278       O  0.79151029  0.82250656  0.83323256    -0.72300
O1279       O  0.70846755  0.82250666  0.83328619    -0.72300
O1280       O  0.70847060  0.67756446  0.83322563    -0.72300
O1281       O  0.70846632  0.74998970  0.88159276    -0.72200
O1282       O  0.70845725  0.75008610  0.78491756    -0.72400
V1283       V  0.78989549  0.75003505  0.83326098     1.35200
V1284       V  0.71008521  0.75003605  0.83325555     1.35200
C1285       C  0.75000000  0.75003541  0.76859151     0.77000
C1286       C  0.74998145  0.75003411  0.89800270     0.77100
C1287       C  0.74999222  0.65297633  0.83325801     0.77000
C1288       C  0.74998874  0.84709475  0.83325982     0.76900
O1289       O  0.49994238  0.54156717  0.71515640    -0.72200
O1290       O  0.00004006  0.54154407  0.61848136    -0.72400
O1291       O  0.92752272  0.54154971  0.66678720    -0.72300
O1292       O  0.57246465  0.54154757  0.66684912    -0.72300
O1293       O  0.57246523  0.95850495  0.66679049    -0.72300
O1294       O  0.92752290  0.95850685  0.66684634    -0.72300
O1295       O  0.49995166  0.95850986  0.61848183    -0.72200
O1296       O  0.00004167  0.95848644  0.71515637    -0.72400
V1297       V  0.99999319  0.53993230  0.66681852     1.35200
V1298       V  0.99999457  0.96012192  0.66681874     1.35200
C1299       C  0.99999116  0.50002662  0.73148538     0.77000
C1300       C  0.99999734  0.50002688  0.60207424     0.77100
C1301       C  0.90293471  0.50002853  0.66681698     0.77000
C1302       C  0.59705313  0.50002615  0.66682004     0.76900
O1303       O  0.49995490  0.79156334  0.71515780    -0.72200
O1304       O  0.00005322  0.79154021  0.61848285    -0.72400
O1305       O  0.92753637  0.79154754  0.66678845    -0.72300
O1306       O  0.57247788  0.79154335  0.66685039    -0.72300
O1307       O  0.57247811  0.70850063  0.66679071    -0.72300
O1308       O  0.92753540  0.70850480  0.66684835    -0.72300
O1309       O  0.49996241  0.70850606  0.61848317    -0.72200
O1310       O  0.00005481  0.70848262  0.71515761    -0.72400
V1311       V  0.00000662  0.78992869  0.66681995     1.35200
V1312       V  0.00000705  0.71011838  0.66682003     1.35200
C1313       C  0.00000255  0.75002271  0.73148665     0.77000
C1314       C  0.00000751  0.75002292  0.60207567     0.77100
C1315       C  0.90294777  0.75002685  0.66681833     0.77000
C1316       C  0.59706618  0.75002204  0.66682015     0.76900
O1317       O  0.74994221  0.54157027  0.71515681    -0.72200
O1318       O  0.75003886  0.54154340  0.61848219    -0.72400
O1319       O  0.67752185  0.54154794  0.66678817    -0.72300
O1320       O  0.82246412  0.54155018  0.66684914    -0.72300
O1321       O  0.82246603  0.95850751  0.66678857    -0.72300
O1322       O  0.67752409  0.95850531  0.66685168    -0.72300
O1323       O  0.74994792  0.95850916  0.61848362    -0.72200
O1324       O  0.75004894  0.95848954  0.71515860    -0.72400
V1325       V  0.74999240  0.53993308  0.66681918     1.35200
V1326       V  0.74999585  0.96012274  0.66682069     1.35200
C1327       C  0.74999612  0.50003068  0.73148667     0.77000
C1328       C  0.74999494  0.50002580  0.60207557     0.77100
C1329       C  0.65293479  0.50002617  0.66682008     0.77000
C1330       C  0.84705321  0.50002909  0.66681812     0.76900
O1331       O  0.67753430  0.79154492  0.66678624    -0.72200
O1332       O  0.82247695  0.79154910  0.66684786    -0.72400
O1333       O  0.75005093  0.79153955  0.61848059    -0.72300
O1334       O  0.74995358  0.79157103  0.71515504    -0.72300
O1335       O  0.75006003  0.70849033  0.71515839    -0.72300
O1336       O  0.74996206  0.70850542  0.61848321    -0.72300
O1337       O  0.82247925  0.70850637  0.66678954    -0.72200
O1338       O  0.67753763  0.70850220  0.66685068    -0.72400
V1339       V  0.75000487  0.78993130  0.66681747     1.35200
V1340       V  0.75000915  0.71012101  0.66682044     1.35200
C1341       C  0.65294780  0.75002265  0.66681898     0.77000
C1342       C  0.84706625  0.75002796  0.66681852     0.77100
C1343       C  0.75000600  0.75002155  0.60207453     0.77000
C1344       C  0.75000525  0.75003217  0.73148569     0.76900
loop_ 
_geom_bond_atom_site_label_1 
_geom_bond_atom_site_label_2 
_geom_bond_distance 
_geom_bond_site_symmetry_2 
_ccdc_geom_bond_type 
O1            V9   1.898       .  S
O1          C683   1.264       .  A
O2          V345   1.898       .  S
O2          C684   1.264       .  A
O3            V9   1.899       .  S
O3         C1021   1.264       .  A
O4          V345   1.899   1_565  S
O4           C14   1.263   1_565  A
O5          V346   1.899       .  S
O5         C1022   1.263   1_455  A
O6           V10   1.899   1_565  S
O6           C13   1.264   1_465  A
O7           V10   1.898       .  S
O7           C12   1.264   1_455  A
O8          V346   1.898       .  S
O8           C11   1.264   1_455  A
V9          O338   1.898       .  S
V9          O340   1.899       .  S
V9         V1018   2.090       .  T
V10         O341   1.899       .  S
V10         O344   1.898   1_545  S
V10        V1017   2.090   1_455  T
C11         O673   1.264       .  A
C11          C27   1.463       .  S
C12         O674   1.264       .  A
C12          C28   1.463       .  S
C13        O1011   1.264       .  A
C13         C180   1.465       .  S
C14        O1013   1.263       .  A
C14         C406   1.458       .  S
O15          V23   1.899       .  S
O15         C697   1.263   1_455  A
O16          V23   1.899       .  S
O16          C26   1.264   1_455  A
O17          V23   1.898       .  S
O17          C27   1.264   1_455  A
O18          V23   1.898       .  S
O18          C28   1.264   1_455  A
O19          V24   1.898       .  S
O19         C700   1.264       .  A
O20          V24   1.898       .  S
O20         C699   1.264       .  A
O21          V24   1.899       .  S
O21         C698   1.264       .  A
O22          V24   1.899       .  S
O22          C25   1.263       .  A
V23         V696   2.090   1_455  T
V24         V695   2.090       .  T
C25         O687   1.263       .  A
C25          C81   1.458       .  S
C26         O693   1.264       .  A
C26         C193   1.465       .  S
C27         O692   1.264       .  A
C28         O691   1.264       .  A
O29          V37   1.898       .  S
O29          C39   1.264       .  A
O30         V373   1.898       .  S
O30          C40   1.264       .  A
O31          V37   1.899   1_565  S
O31          C41   1.263   1_565  A
O32         V373   1.899       .  S
O32         C378   1.264       .  A
O33         V374   1.899   1_565  S
O33          C42   1.264   1_565  A
O34          V38   1.899       .  S
O34         C377   1.263       .  A
O35          V38   1.898       .  S
O35          C40   1.264       .  A
O36         V374   1.898       .  S
O36          C39   1.264       .  A
V37         O366   1.898   1_545  S
V37         O368   1.899       .  S
V37         V374   2.090       .  T
V38         O369   1.899       .  S
V38         O372   1.898       .  S
V38         V373   2.090       .  T
C39          C53   1.463       .  S
C40          C54   1.463       .  S
C41         O370   1.263       .  A
C41          C97   1.458       .  S
C42         O368   1.264       .  A
C42         C209   1.465       .  S
O43          V51   1.898       .  S
O43          C53   1.264       .  A
O44          V51   1.898       .  S
O44          C54   1.264       .  A
O45          V51   1.899       .  S
O45          C55   1.263       .  A
O46          V51   1.899       .  S
O46          C56   1.264       .  A
O47          V52   1.899       .  S
O47          C56   1.264       .  A
O48          V52   1.899       .  S
O48          C55   1.263       .  A
O49          V52   1.898       .  S
O49          C54   1.264       .  A
O50          V52   1.898       .  S
O50          C53   1.264       .  A
V51          V52   2.090       .  T
C55         C109   1.458       .  S
C56         C222   1.465       .  S
O57          V65   1.898       .  S
O57         C403   1.264       .  A
O58         V737   1.898   1_455  S
O58         C404   1.264       .  A
O59          V65   1.899       .  S
O59         C405   1.264       .  A
O60         V737   1.899       .  S
O60         C742   1.263       .  A
O61         V738   1.899       .  S
O61         C406   1.263       .  A
O62          V66   1.899   1_655  S
O62         C741   1.264   1_655  A
O63          V66   1.898       .  S
O63          C68   1.264       .  A
O64         V738   1.898       .  S
O64          C67   1.264       .  A
V65         O730   1.898       .  S
V65         O732   1.899       .  S
V65        V1074   2.090       .  T
V66         O733   1.899       .  S
V66         O736   1.898   1_455  S
V66        V1073   2.090   1_445  T
C67         O393   1.264   1_545  A
C67          C96   1.463       .  S
C68         O394   1.264   1_545  A
C68          C95   1.463       .  S
C69         O395   1.264   1_545  A
C69         O734   1.264       .  A
C69         C125   1.465       .  S
C70         O732   1.263       .  A
C70         O397   1.263       .  A
C70         C350   1.458       .  S
O71          V79   1.899       .  S
O71          C81   1.263       .  A
O72         V751   1.899       .  S
O72         C754   1.264       .  A
O73         V751   1.898   1_455  S
O73          C83   1.264       .  A
O74          V79   1.898       .  S
O74          C84   1.264       .  A
O75          V80   1.898       .  S
O75          C84   1.264       .  A
O76         V752   1.898   1_455  S
O76          C83   1.264       .  A
O77          V80   1.899       .  S
O77          C82   1.264       .  A
O78         V752   1.899       .  S
O78         C753   1.263       .  A
V79         O744   1.899       .  S
V79         O745   1.898       .  S
V79          V80   2.090       .  T
V80         O748   1.898       .  S
V80         O750   1.899       .  S
C81         O750   1.263       .  A
C82         O744   1.264       .  A
C82         C137   1.465       .  S
C83         C111   1.463       .  S
C84         C112   1.463       .  S
O85          V93   1.898       .  S
O85          C95   1.264       .  A
O86          V93   1.898       .  S
O86          C96   1.264       .  A
O87          V93   1.899       .  S
O87          C97   1.263       .  A
O88          V93   1.899       .  S
O88          C98   1.264       .  A
O89          V94   1.899       .  S
O89         C434   1.264       .  A
O90          V94   1.899       .  S
O90         C433   1.263       .  A
O91          V94   1.898       .  S
O91         C432   1.264       .  A
O92          V94   1.898       .  S
O92         C431   1.264       .  A
V93         V430   2.090   1_545  T
V94         V429   2.090       .  T
C95         O428   1.264   1_545  A
C96         O427   1.264   1_545  A
C97         O426   1.263   1_545  A
C98         O425   1.264   1_545  A
C98         C153   1.465       .  S
O99         V107   1.899       .  S
O99         C109   1.263       .  A
O100        V107   1.899       .  S
O100        C110   1.264       .  A
O101        V107   1.898       .  S
O101        C111   1.264       .  A
O102        V107   1.898       .  S
O102        C112   1.264       .  A
O103        V108   1.898       .  S
O103        C112   1.264       .  A
O104        V108   1.898       .  S
O104        C111   1.264       .  A
O105        V108   1.899       .  S
O105        C110   1.264       .  A
O106        V108   1.899       .  S
O106        C109   1.263       .  A
V107        V108   2.090       .  T
C110        C167   1.465       .  S
O113        V121   1.898       .  S
O113        C123   1.264       .  A
O114        V793   1.898       .  S
O114        C124   1.264       .  A
O115        V121   1.899       .  S
O115        C125   1.264       .  A
O116        V793   1.899   1_655  S
O116        C798   1.264   1_655  A
O117        V794   1.899       .  S
O117        C462   1.264       .  A
O118        V122   1.899   1_655  S
O118       C1133   1.264   1_655  A
O119        V122   1.898       .  S
O119        C460   1.264       .  A
O120        V794   1.898       .  S
O120        C459   1.264       .  A
V121        O786   1.898       .  S
V121        O788   1.899       .  S
V121       V1130   2.090   1_545  T
V122        O789   1.899       .  S
V122        O792   1.898   1_455  S
V122       V1129   2.090       .  T
C123        O456   1.264   1_545  A
C123        C152   1.463       .  S
C124        O455   1.264   1_545  A
C124        C151   1.463       .  S
C125       O1126   1.264   1_545  A
C126        O788   1.264       .  A
C126        O453   1.264   1_545  A
C126        C292   1.465       .  S
O127        V135   1.899       .  S
O127        C137   1.264       .  A
O128        V807   1.899   1_655  S
O128        C810   1.264   1_655  A
O129        V807   1.898       .  S
O129        C139   1.264       .  A
O130        V135   1.898       .  S
O130        C140   1.264       .  A
O131        V136   1.898       .  S
O131        C140   1.264       .  A
O132        V808   1.898       .  S
O132        C139   1.264       .  A
O133        V136   1.899       .  S
O133        C138   1.264       .  A
O134        V808   1.899   1_655  S
O134        C809   1.264       .  A
V135        O800   1.899       .  S
V135        O801   1.898       .  S
V135        V136   2.090       .  T
V136        O804   1.898       .  S
V136        O806   1.899       .  S
C137        O806   1.264       .  A
C138        O800   1.264       .  A
C138        C306   1.465       .  S
C139        C165   1.463       .  S
C140        C166   1.463       .  S
O141        V149   1.898       .  S
O141        C151   1.264       .  A
O142        V149   1.898       .  S
O142        C152   1.264       .  A
O143        V149   1.899       .  S
O143        C153   1.264       .  A
O144        V149   1.899       .  S
O144        C154   1.264       .  A
O145        V150   1.899       .  S
O145        C490   1.264       .  A
O146        V150   1.899       .  S
O146        C489   1.264       .  A
O147        V150   1.898       .  S
O147        C488   1.264       .  A
O148        V150   1.898       .  S
O148        C487   1.264       .  A
V149        V486   2.090   1_545  T
V150        V485   2.090       .  T
C151        O484   1.264   1_545  A
C152        O483   1.264   1_545  A
C153        O482   1.264   1_545  A
C154        O481   1.264   1_545  A
C154        C320   1.465       .  S
O155        V163   1.898       .  S
O155        C165   1.264       .  A
O156        V163   1.898       .  S
O156        C166   1.264       .  A
O157        V163   1.899       .  S
O157        C167   1.264       .  A
O158        V163   1.899       .  S
O158        C168   1.264       .  A
O159        V164   1.899       .  S
O159        C168   1.264       .  A
O160        V164   1.899       .  S
O160        C167   1.264       .  A
O161        V164   1.898       .  S
O161        C166   1.264       .  A
O162        V164   1.898       .  S
O162        C165   1.264       .  A
V163        V164   2.090       .  T
C168        C335   1.465       .  S
O169        V177   1.899   1_556  S
O169        C179   1.264   1_455  A
O170        V513   1.899       .  S
O170        C516   1.264   1_455  A
O171        V513   1.898       .  S
O171        C181   1.264   1_455  A
O172        V177   1.898       .  S
O172        C182   1.264   1_455  A
O173        V178   1.898       .  S
O173        C854   1.264       .  A
O174        V514   1.898       .  S
O174        C853   1.264       .  A
O175        V178   1.899       .  S
O175        C852   1.264       .  A
O176        V514   1.899   1_556  S
O176       C1187   1.264       .  A
V177        O506   1.899       .  S
V177        O507   1.898   1_545  S
V177        V850   2.090   1_455  T
V178        O510   1.898   1_545  S
V178        O512   1.899   1_554  S
V178        V849   2.090       .  T
C179       O1184   1.264       .  A
C179        C236   1.465       .  S
C180        O506   1.264   1_655  A
C180        O847   1.264       .  A
C181        O846   1.264       .  A
C181        C195   1.463       .  S
C182        O845   1.264       .  A
C182        C196   1.463       .  S
O183        V191   1.899       .  S
O183        C193   1.264   1_455  A
O184        V191   1.899   1_556  S
O184        C194   1.264   1_455  A
O185        V191   1.898       .  S
O185        C195   1.264   1_455  A
O186        V191   1.898       .  S
O186        C196   1.264   1_455  A
O187        V192   1.898       .  S
O187        C868   1.264       .  A
O188        V192   1.898       .  S
O188        C867   1.264       .  A
O189        V192   1.899   1_556  S
O189        C866   1.264       .  A
O190        V192   1.899       .  S
O190        C865   1.264       .  A
V191        V864   2.090   1_455  T
V192        V863   2.090       .  T
C193        O862   1.264       .  A
C194        O861   1.264       .  A
C194        C923   1.465       .  S
C195        O860   1.264       .  A
C196        O859   1.264       .  A
O197        V205   1.898       .  S
O197        C207   1.264       .  A
O198        V541   1.898       .  S
O198        C208   1.264       .  A
O199        V205   1.899       .  S
O199        C209   1.264       .  A
O200        V541   1.899   1_556  S
O200        C546   1.264       .  A
O201        V542   1.899   1_556  S
O201        C210   1.264       .  A
O202        V206   1.899       .  S
O202        C545   1.264       .  A
O203        V206   1.898       .  S
O203        C208   1.264       .  A
O204        V542   1.898       .  S
O204        C207   1.264       .  A
V205        O534   1.898   1_545  S
V205        O536   1.899   1_554  S
V205        V542   2.090       .  T
V206        O537   1.899   1_554  S
V206        O540   1.898       .  S
V206        V541   2.090       .  T
C207        C223   1.463       .  S
C208        C224   1.463       .  S
C209        O538   1.264       .  A
C210        O536   1.264       .  A
C210        C265   1.465       .  S
O211        V219   1.899   1_556  S
O211        C221   1.264       .  A
O212        V219   1.899       .  S
O212        C222   1.264       .  A
O213        V219   1.898       .  S
O213        C223   1.264       .  A
O214        V219   1.898       .  S
O214        C224   1.264       .  A
O215        V220   1.898       .  S
O215        C224   1.264       .  A
O216        V220   1.898       .  S
O216        C223   1.264       .  A
O217        V220   1.899       .  S
O217        C222   1.264       .  A
O218        V220   1.899   1_556  S
O218        C221   1.264       .  A
V219        V220   2.090       .  T
C221        C278   1.465       .  S
O225        V233   1.899   1_565  S
O225        C907   1.263   1_465  A
O226        V569   1.899       .  S
O226        C572   1.264   1_455  A
O227        V569   1.898       .  S
O227        C237   1.264   1_455  A
O228        V233   1.898       .  S
O228        C238   1.264   1_455  A
O229        V234   1.898       .  S
O229        C910   1.264       .  A
O230        V570   1.898       .  S
O230        C909   1.264       .  A
O231        V234   1.899   1_565  S
O231        C908   1.264   1_565  A
O232        V570   1.899       .  S
O232        C571   1.263       .  A
V233        O562   1.899       .  S
V233        O563   1.898   1_545  S
V233        V906   2.090   1_455  T
V234        O566   1.898   1_545  S
V234        O568   1.899       .  S
V234        V905   2.090       .  T
C235        O897   1.263   1_545  A
C235        O568   1.263       .  A
C235        C291   1.458       .  S
C236        O562   1.264   1_655  A
C236        O903   1.264   1_545  A
C237        O902   1.264       .  A
C237        C249   1.463       .  S
C238        O901   1.264       .  A
C238        C250   1.463       .  S
O239        V247   1.898       .  S
O239        C921   1.264       .  A
O240        V247   1.898       .  S
O240        C922   1.264       .  A
O241        V247   1.899       .  S
O241        C251   1.264       .  A
O242        V247   1.899       .  S
O242        C252   1.263       .  A
O243        V248   1.899       .  S
O243        C924   1.263   1_455  A
O244        V248   1.899       .  S
O244        C923   1.264   1_455  A
O245        V248   1.898       .  S
O245        C250   1.264   1_455  A
O246        V248   1.898       .  S
O246        C249   1.264   1_455  A
V247        V920   2.090       .  T
V248        V919   2.090   1_455  T
C249        O911   1.264       .  A
C250        O912   1.264       .  A
C251        O916   1.264       .  A
C251        C866   1.465       .  S
C252        O915   1.263       .  A
C252        C305   1.458       .  S
O253        V261   1.898       .  S
O253        C263   1.264       .  A
O254        V597   1.898       .  S
O254        C264   1.264       .  A
O255        V261   1.899   1_565  S
O255        C265   1.264   1_565  A
O256        V597   1.899       .  S
O256        C602   1.263       .  A
O257        V598   1.899   1_565  S
O257        C266   1.263   1_565  A
O258        V262   1.899       .  S
O258        C601   1.264       .  A
O259        V262   1.898       .  S
O259        C264   1.264       .  A
O260        V598   1.898       .  S
O260        C263   1.264       .  A
V261        O590   1.898   1_545  S
V261        O592   1.899       .  S
V261        V598   2.090       .  T
V262        O593   1.899       .  S
V262        O596   1.898       .  S
V262        V597   2.090       .  T
C263        C279   1.463       .  S
C264        C280   1.463       .  S
C265        O594   1.264       .  A
C266        O592   1.263       .  A
C266        C319   1.458       .  S
O267        V275   1.899       .  S
O267        C277   1.263       .  A
O268        V275   1.899       .  S
O268        C278   1.264       .  A
O269        V275   1.898       .  S
O269        C279   1.264       .  A
O270        V275   1.898       .  S
O270        C280   1.264       .  A
O271        V276   1.898       .  S
O271        C280   1.264       .  A
O272        V276   1.898       .  S
O272        C279   1.264       .  A
O273        V276   1.899       .  S
O273        C278   1.264       .  A
O274        V276   1.899       .  S
O274        C277   1.263       .  A
V275        V276   2.090       .  T
C277        C336   1.458       .  S
O281        V961   1.899       .  S
O281        C963   1.263       .  A
O282        V289   1.899       .  S
O282        C292   1.264       .  A
O283        V289   1.898       .  S
O283        C293   1.264       .  A
O284        V961   1.898   1_455  S
O284        C294   1.264       .  A
O285        V962   1.898   1_455  S
O285        C630   1.264       .  A
O286        V290   1.898       .  S
O286        C629   1.264       .  A
O287        V962   1.899       .  S
O287       C1300   1.264       .  A
O288        V290   1.899       .  S
O288        C627   1.263       .  A
V289        O953   1.899       .  S
V289        O956   1.898       .  S
V289        V626   2.090   1_545  T
V290        O957   1.898       .  S
V290        O959   1.899       .  S
V290        V625   2.090       .  T
C291        O953   1.263       .  A
C291        O624   1.263   1_545  A
C292       O1295   1.264   1_545  A
C293        O622   1.264   1_545  A
C293        C322   1.463       .  S
C294        O621   1.264   1_545  A
C294        C321   1.463       .  S
O295        V975   1.899   1_655  S
O295        C977   1.263   1_655  A
O296        V303   1.899       .  S
O296        C306   1.264       .  A
O297        V303   1.898       .  S
O297        C307   1.264       .  A
O298        V975   1.898       .  S
O298        C308   1.264       .  A
O299        V976   1.898       .  S
O299        C308   1.264       .  A
O300        V304   1.898       .  S
O300        C307   1.264       .  A
O301        V976   1.899   1_655  S
O301        C978   1.264   1_655  A
O302        V304   1.899       .  S
O302        C305   1.263       .  A
V303        O967   1.899       .  S
V303        O970   1.898       .  S
V303        V304   2.090       .  T
V304        O971   1.898       .  S
V304        O973   1.899       .  S
C305        O967   1.263       .  A
C306        O973   1.264       .  A
C307        C334   1.463       .  S
C308        C333   1.463       .  S
O309        V317   1.899       .  S
O309        C319   1.263       .  A
O310        V317   1.899       .  S
O310        C320   1.264       .  A
O311        V317   1.898       .  S
O311        C321   1.264       .  A
O312        V317   1.898       .  S
O312        C322   1.264       .  A
O313        V318   1.898       .  S
O313        C658   1.264       .  A
O314        V318   1.898       .  S
O314        C657   1.264       .  A
O315        V318   1.899       .  S
O315        C656   1.264       .  A
O316        V318   1.899       .  S
O316        C655   1.263       .  A
V317        V654   2.090   1_545  T
V318        V653   2.090       .  T
C319        O652   1.263   1_545  A
C320        O651   1.264   1_545  A
C321        O650   1.264   1_545  A
C322        O649   1.264   1_545  A
O323        V331   1.898       .  S
O323        C333   1.264       .  A
O324        V331   1.898       .  S
O324        C334   1.264       .  A
O325        V331   1.899       .  S
O325        C335   1.264       .  A
O326        V331   1.899       .  S
O326        C336   1.263       .  A
O327        V332   1.899       .  S
O327        C336   1.263       .  A
O328        V332   1.899       .  S
O328        C335   1.264       .  A
O329        V332   1.898       .  S
O329        C334   1.264       .  A
O330        V332   1.898       .  S
O330        C333   1.264       .  A
V331        V332   2.090       .  T
O337        V345   1.898   1_565  S
O337       C1019   1.264       .  A
O338       C1020   1.264       .  A
O339        V345   1.899       .  S
O339        C685   1.264       .  A
O340        C350   1.263       .  A
O341        C686   1.263   1_455  A
O342        V346   1.899       .  S
O342        C349   1.264   1_455  A
O343        V346   1.898       .  S
O343        C348   1.264   1_455  A
O344        C347   1.264   1_455  A
V345        V682   2.090       .  T
V346        V681   2.090   1_455  T
C347       O1009   1.264       .  A
C347        C363   1.463       .  S
C348       O1010   1.264       .  A
C348        C364   1.463       .  S
C349        O675   1.264       .  A
C349        C516   1.465       .  S
C350        O677   1.263       .  A
O351        V359   1.899       .  S
O351       C1033   1.263   1_455  A
O352        V359   1.899       .  S
O352        C362   1.264   1_455  A
O353        V359   1.898       .  S
O353        C363   1.264   1_455  A
O354        V359   1.898       .  S
O354        C364   1.264   1_455  A
O355        V360   1.898       .  S
O355       C1036   1.264       .  A
O356        V360   1.898       .  S
O356       C1035   1.264       .  A
O357        V360   1.899       .  S
O357       C1034   1.264       .  A
O358        V360   1.899       .  S
O358        C361   1.263       .  A
V359       V1032   2.090   1_455  T
V360       V1031   2.090       .  T
C361       O1023   1.263       .  A
C361        C417   1.458       .  S
C362       O1029   1.264       .  A
C362        C529   1.465       .  S
C363       O1028   1.264       .  A
C364       O1027   1.264       .  A
O365        V373   1.898       .  S
O365        C375   1.264       .  A
O366        C376   1.264       .  A
O367        V373   1.899       .  S
O367        C377   1.263       .  A
O369        C378   1.264       .  A
O370        V374   1.899       .  S
O371        V374   1.898   1_565  S
O371        C376   1.264       .  A
O372        C375   1.264       .  A
C375        C389   1.463       .  S
C376        C390   1.463       .  S
C377        C433   1.458       .  S
C378        C545   1.465       .  S
O379        V387   1.898       .  S
O379        C389   1.264       .  A
O380        V387   1.898       .  S
O380        C390   1.264       .  A
O381        V387   1.899       .  S
O381        C391   1.263       .  A
O382        V387   1.899       .  S
O382        C392   1.264       .  A
O383        V388   1.899       .  S
O383        C392   1.264       .  A
O384        V388   1.899       .  S
O384        C391   1.263       .  A
O385        V388   1.898       .  S
O385        C390   1.264       .  A
O386        V388   1.898       .  S
O386        C389   1.264       .  A
V387        V388   2.090       .  T
C391        C445   1.458       .  S
C392        C558   1.465       .  S
O393        V401   1.898       .  S
O394       V1073   1.898   1_455  S
O395        V401   1.899       .  S
O396       V1073   1.899       .  S
O396       C1078   1.263   1_565  A
O397       V1074   1.899       .  S
O398        V402   1.899   1_655  S
O398       C1077   1.264   1_655  A
O399        V402   1.898       .  S
O399        C404   1.264       .  A
O400       V1074   1.898       .  S
O400        C403   1.264       .  A
V401       O1066   1.898       .  S
V401       O1068   1.899       .  S
V401        V738   2.090   1_565  T
V402       O1069   1.899       .  S
V402       O1072   1.898   1_455  S
V402        V737   2.090   1_455  T
C403        C432   1.463       .  S
C404        C431   1.463       .  S
C405       O1070   1.264       .  A
C405        C461   1.465       .  S
C406       O1068   1.263   1_545  A
O407        V415   1.899       .  S
O407        C417   1.263       .  A
O408       V1087   1.899       .  S
O408       C1090   1.264       .  A
O409       V1087   1.898   1_455  S
O409        C419   1.264       .  A
O410        V415   1.898       .  S
O410        C420   1.264       .  A
O411        V416   1.898       .  S
O411        C420   1.264       .  A
O412       V1088   1.898   1_455  S
O412        C419   1.264       .  A
O413        V416   1.899       .  S
O413        C418   1.264       .  A
O414       V1088   1.899       .  S
O414       C1089   1.263       .  A
V415       O1080   1.899       .  S
V415       O1081   1.898       .  S
V415        V416   2.090       .  T
V416       O1084   1.898       .  S
V416       O1086   1.899       .  S
C417       O1086   1.263       .  A
C418       O1080   1.264       .  A
C418        C473   1.465       .  S
C419        C447   1.463       .  S
C420        C448   1.463       .  S
O421        V429   1.898       .  S
O421        C431   1.264       .  A
O422        V429   1.898       .  S
O422        C432   1.264       .  A
O423        V429   1.899       .  S
O423        C433   1.263       .  A
O424        V429   1.899       .  S
O424        C434   1.264       .  A
O425        V430   1.899       .  S
O426        V430   1.899       .  S
O427        V430   1.898       .  S
O428        V430   1.898       .  S
C434        C489   1.465       .  S
O435        V443   1.899       .  S
O435        C445   1.263       .  A
O436        V443   1.899       .  S
O436        C446   1.264       .  A
O437        V443   1.898       .  S
O437        C447   1.264       .  A
O438        V443   1.898       .  S
O438        C448   1.264       .  A
O439        V444   1.898       .  S
O439        C448   1.264       .  A
O440        V444   1.898       .  S
O440        C447   1.264       .  A
O441        V444   1.899       .  S
O441        C446   1.264       .  A
O442        V444   1.899       .  S
O442        C445   1.263       .  A
V443        V444   2.090       .  T
C446        C503   1.465       .  S
O449        V457   1.898       .  S
O449        C459   1.264       .  A
O450       V1129   1.898       .  S
O450        C460   1.264       .  A
O451        V457   1.899       .  S
O451        C461   1.264       .  A
O452       V1129   1.899   1_655  S
O452       C1134   1.264   1_655  A
O453       V1130   1.899       .  S
O454        V458   1.899   1_655  S
O454        C797   1.264   1_665  A
O455        V458   1.898       .  S
O456       V1130   1.898       .  S
V457       O1122   1.898       .  S
V457       O1124   1.899       .  S
V457        V794   2.090       .  T
V458       O1125   1.899       .  S
V458       O1128   1.898   1_455  S
V458        V793   2.090   1_565  T
C459        C488   1.463       .  S
C460        C487   1.463       .  S
C461        O790   1.264       .  A
C462       O1124   1.264       .  A
C462        C628   1.465       .  S
O463        V471   1.899       .  S
O463        C473   1.264       .  A
O464       V1143   1.899   1_655  S
O464       C1146   1.264   1_655  A
O465       V1143   1.898       .  S
O465        C475   1.264       .  A
O466        V471   1.898       .  S
O466        C476   1.264       .  A
O467        V472   1.898       .  S
O467        C476   1.264       .  A
O468       V1144   1.898       .  S
O468        C475   1.264       .  A
O469        V472   1.899       .  S
O469        C474   1.264       .  A
O470       V1144   1.899   1_655  S
O470       C1145   1.264       .  A
V471       O1136   1.899       .  S
V471       O1137   1.898       .  S
V471        V472   2.090       .  T
V472       O1140   1.898       .  S
V472       O1142   1.899       .  S
C473       O1142   1.264       .  A
C474       O1136   1.264       .  A
C474        C642   1.465       .  S
C475        C501   1.463       .  S
C476        C502   1.463       .  S
O477        V485   1.898       .  S
O477        C487   1.264       .  A
O478        V485   1.898       .  S
O478        C488   1.264       .  A
O479        V485   1.899       .  S
O479        C489   1.264       .  A
O480        V485   1.899       .  S
O480        C490   1.264       .  A
O481        V486   1.899       .  S
O482        V486   1.899       .  S
O483        V486   1.898       .  S
O484        V486   1.898       .  S
C490        C656   1.465       .  S
O491        V499   1.898       .  S
O491        C501   1.264       .  A
O492        V499   1.898       .  S
O492        C502   1.264       .  A
O493        V499   1.899       .  S
O493        C503   1.264       .  A
O494        V499   1.899       .  S
O494        C504   1.264       .  A
O495        V500   1.899       .  S
O495        C504   1.264       .  A
O496        V500   1.899       .  S
O496        C503   1.264       .  A
O497        V500   1.898       .  S
O497        C502   1.264       .  A
O498        V500   1.898       .  S
O498        C501   1.264       .  A
V499        V500   2.090       .  T
C504        C671   1.465       .  S
O505        V513   1.899   1_556  S
O505        C515   1.264   1_455  A
O507        C517   1.264   1_455  A
O508        V513   1.898       .  S
O508        C518   1.264   1_455  A
O509        V514   1.898       .  S
O509       C1190   1.264       .  A
O510       C1189   1.264       .  A
O511        V514   1.899       .  S
O511       C1188   1.264       .  A
O512        C851   1.264       .  A
V513       V1186   2.090   1_455  T
V514       V1185   2.090       .  T
C515        O848   1.264       .  A
C515        C572   1.465       .  S
C516       O1183   1.264       .  A
C517       O1182   1.264       .  A
C517        C531   1.463       .  S
C518       O1181   1.264       .  A
C518        C532   1.463       .  S
O519        V527   1.899       .  S
O519        C529   1.264   1_455  A
O520        V527   1.899   1_556  S
O520        C530   1.264   1_455  A
O521        V527   1.898       .  S
O521        C531   1.264   1_455  A
O522        V527   1.898       .  S
O522        C532   1.264   1_455  A
O523        V528   1.898       .  S
O523       C1204   1.264       .  A
O524        V528   1.898       .  S
O524       C1203   1.264       .  A
O525        V528   1.899   1_556  S
O525       C1202   1.264       .  A
O526        V528   1.899       .  S
O526       C1201   1.264       .  A
V527       V1200   2.090   1_455  T
V528       V1199   2.090       .  T
C529       O1198   1.264       .  A
C530       O1197   1.264       .  A
C530       C1259   1.465       .  S
C531       O1196   1.264       .  A
C532       O1195   1.264       .  A
O533        V541   1.898       .  S
O533        C543   1.264       .  A
O534        C544   1.264       .  A
O535        V541   1.899       .  S
O535        C545   1.264       .  A
O537        C546   1.264       .  A
O538        V542   1.899       .  S
O539        V542   1.898   1_565  S
O539        C544   1.264       .  A
O540        C543   1.264       .  A
C543        C559   1.463       .  S
C544        C560   1.463       .  S
C546        C601   1.465       .  S
O547        V555   1.899   1_556  S
O547        C557   1.264       .  A
O548        V555   1.899       .  S
O548        C558   1.264       .  A
O549        V555   1.898       .  S
O549        C559   1.264       .  A
O550        V555   1.898       .  S
O550        C560   1.264       .  A
O551        V556   1.898       .  S
O551        C560   1.264       .  A
O552        V556   1.898       .  S
O552        C559   1.264       .  A
O553        V556   1.899       .  S
O553        C558   1.264       .  A
O554        V556   1.899   1_556  S
O554        C557   1.264       .  A
V555        V556   2.090       .  T
C557        C614   1.465       .  S
O561        V569   1.899       .  S
O561       C1243   1.263   1_455  A
O563        C573   1.264   1_455  A
O564        V569   1.898       .  S
O564        C574   1.264   1_455  A
O565        V570   1.898       .  S
O565       C1246   1.264       .  A
O566       C1245   1.264       .  A
O567        V570   1.899       .  S
O567       C1244   1.264       .  A
V569       V1242   2.090   1_455  T
V570       V1241   2.090       .  T
C571       O1233   1.263       .  A
C571        C627   1.458       .  S
C572       O1239   1.264       .  A
C573       O1238   1.264       .  A
C573        C585   1.463       .  S
C574       O1237   1.264       .  A
C574        C586   1.463       .  S
O575        V583   1.898       .  S
O575       C1257   1.264       .  A
O576        V583   1.898       .  S
O576       C1258   1.264       .  A
O577        V583   1.899       .  S
O577        C587   1.264       .  A
O578        V583   1.899       .  S
O578        C588   1.263       .  A
O579        V584   1.899       .  S
O579       C1260   1.263   1_455  A
O580        V584   1.899       .  S
O580       C1259   1.264   1_455  A
O581        V584   1.898       .  S
O581        C586   1.264   1_455  A
O582        V584   1.898       .  S
O582        C585   1.264   1_455  A
V583       V1256   2.090       .  T
V584       V1255   2.090   1_455  T
C585       O1247   1.264       .  A
C586       O1248   1.264       .  A
C587       O1252   1.264       .  A
C587       C1202   1.465       .  S
C588       O1251   1.263       .  A
C588        C641   1.458       .  S
O589        V597   1.898       .  S
O589        C599   1.264       .  A
O590        C600   1.264       .  A
O591        V597   1.899       .  S
O591        C601   1.264       .  A
O593        C602   1.263       .  A
O594        V598   1.899       .  S
O595        V598   1.898   1_565  S
O595        C600   1.264       .  A
O596        C599   1.264       .  A
C599        C615   1.463       .  S
C600        C616   1.463       .  S
C602        C655   1.458       .  S
O603        V611   1.899       .  S
O603        C613   1.263       .  A
O604        V611   1.899       .  S
O604        C614   1.264       .  A
O605        V611   1.898       .  S
O605        C615   1.264       .  A
O606        V611   1.898       .  S
O606        C616   1.264       .  A
O607        V612   1.898       .  S
O607        C616   1.264       .  A
O608        V612   1.898       .  S
O608        C615   1.264       .  A
O609        V612   1.899       .  S
O609        C614   1.264       .  A
O610        V612   1.899       .  S
O610        C613   1.263       .  A
V611        V612   2.090       .  T
C613        C672   1.458       .  S
O617       V1297   1.899       .  S
O617       C1299   1.263       .  A
O618        V625   1.899       .  S
O618        C628   1.264       .  A
O619        V625   1.898       .  S
O619        C629   1.264       .  A
O620       V1297   1.898   1_455  S
O620        C630   1.264       .  A
O621       V1298   1.898   1_455  S
O622        V626   1.898       .  S
O623       V1298   1.899       .  S
O623        C964   1.264   1_565  A
O624        V626   1.899       .  S
V625       O1289   1.899       .  S
V625       O1292   1.898       .  S
V626       O1293   1.898       .  S
V626       O1295   1.899       .  S
C627       O1289   1.263       .  A
C628        O959   1.264       .  A
C629        C658   1.463       .  S
C630        C657   1.463       .  S
O631       V1311   1.899   1_655  S
O631       C1313   1.263   1_655  A
O632        V639   1.899       .  S
O632        C642   1.264       .  A
O633        V639   1.898       .  S
O633        C643   1.264       .  A
O634       V1311   1.898       .  S
O634        C644   1.264       .  A
O635       V1312   1.898       .  S
O635        C644   1.264       .  A
O636        V640   1.898       .  S
O636        C643   1.264       .  A
O637       V1312   1.899   1_655  S
O637       C1314   1.264   1_655  A
O638        V640   1.899       .  S
O638        C641   1.263       .  A
V639       O1303   1.899       .  S
V639       O1306   1.898       .  S
V639        V640   2.090       .  T
V640       O1307   1.898       .  S
V640       O1309   1.899       .  S
C641       O1303   1.263       .  A
C642       O1309   1.264       .  A
C643        C670   1.463       .  S
C644        C669   1.463       .  S
O645        V653   1.899       .  S
O645        C655   1.263       .  A
O646        V653   1.899       .  S
O646        C656   1.264       .  A
O647        V653   1.898       .  S
O647        C657   1.264       .  A
O648        V653   1.898       .  S
O648        C658   1.264       .  A
O649        V654   1.898       .  S
O650        V654   1.898       .  S
O651        V654   1.899       .  S
O652        V654   1.899       .  S
O659        V667   1.898       .  S
O659        C669   1.264       .  A
O660        V667   1.898       .  S
O660        C670   1.264       .  A
O661        V667   1.899       .  S
O661        C671   1.264       .  A
O662        V667   1.899       .  S
O662        C672   1.263       .  A
O663        V668   1.899       .  S
O663        C672   1.263       .  A
O664        V668   1.899       .  S
O664        C671   1.264       .  A
O665        V668   1.898       .  S
O665        C670   1.264       .  A
O666        V668   1.898       .  S
O666        C669   1.264       .  A
V667        V668   2.090       .  T
O673        V681   1.898       .  S
O674       V1017   1.898       .  S
O675        V681   1.899       .  S
O676       V1017   1.899   1_565  S
O676        C686   1.263   1_565  A
O677       V1018   1.899       .  S
O678        V682   1.899   1_565  S
O678        C685   1.264   1_565  A
O679        V682   1.898       .  S
O679        C684   1.264       .  A
O680       V1018   1.898       .  S
O680        C683   1.264       .  A
V681       O1010   1.898       .  S
V681       O1012   1.899       .  S
V682       O1013   1.899       .  S
V682       O1016   1.898   1_545  S
C683        C699   1.463       .  S
C684        C700   1.463       .  S
C685        C852   1.465       .  S
C686       C1078   1.458       .  S
O687        V695   1.899       .  S
O688        V695   1.899       .  S
O688        C698   1.264       .  A
O689        V695   1.898       .  S
O689        C699   1.264       .  A
O690        V695   1.898       .  S
O690        C700   1.264       .  A
O691        V696   1.898       .  S
O692        V696   1.898       .  S
O693        V696   1.899       .  S
O694        V696   1.899       .  S
O694        C697   1.263       .  A
C697        C753   1.458       .  S
C698        C865   1.465       .  S
O701        V709   1.898       .  S
O701        C711   1.264       .  A
O702       V1045   1.898       .  S
O702        C712   1.264       .  A
O703        V709   1.899   1_565  S
O703        C713   1.263   1_565  A
O704       V1045   1.899       .  S
O704       C1050   1.264       .  A
O705       V1046   1.899   1_565  S
O705        C714   1.264   1_565  A
O706        V710   1.899       .  S
O706       C1049   1.263       .  A
O707        V710   1.898       .  S
O707        C712   1.264       .  A
O708       V1046   1.898       .  S
O708        C711   1.264       .  A
V709       O1038   1.898   1_545  S
V709       O1040   1.899       .  S
V709       V1046   2.090       .  T
V710       O1041   1.899       .  S
V710       O1044   1.898       .  S
V710       V1045   2.090       .  T
C711        C725   1.463       .  S
C712        C726   1.463       .  S
C713       O1042   1.263       .  A
C713        C769   1.458       .  S
C714       O1040   1.264       .  A
C714        C881   1.465       .  S
O715        V723   1.898       .  S
O715        C725   1.264       .  A
O716        V723   1.898       .  S
O716        C726   1.264       .  A
O717        V723   1.899       .  S
O717        C727   1.263       .  A
O718        V723   1.899       .  S
O718        C728   1.264       .  A
O719        V724   1.899       .  S
O719        C728   1.264       .  A
O720        V724   1.899       .  S
O720        C727   1.263       .  A
O721        V724   1.898       .  S
O721        C726   1.264       .  A
O722        V724   1.898       .  S
O722        C725   1.264       .  A
V723        V724   2.090       .  T
C727        C781   1.458       .  S
C728        C894   1.465       .  S
O729        V737   1.898       .  S
O729       C1075   1.264       .  A
O730       C1076   1.264       .  A
O731        V737   1.899   1_455  S
O731       C1077   1.264       .  A
O733       C1078   1.263   1_455  A
O734        V738   1.899       .  S
O735        V738   1.898       .  S
O735        C740   1.264       .  A
O736        C739   1.264       .  A
C739       O1065   1.264   1_545  A
C739        C768   1.463       .  S
C740       O1066   1.264   1_545  A
C740        C767   1.463       .  S
C741       O1067   1.264   1_545  A
C741        C797   1.465       .  S
C742       O1069   1.263   1_655  A
C742       C1022   1.458       .  S
O743        V751   1.899   1_455  S
O743        C753   1.263   1_455  A
O745        C755   1.264       .  A
O746        V751   1.898       .  S
O746        C756   1.264       .  A
O747        V752   1.898       .  S
O747        C756   1.264       .  A
O748        C755   1.264       .  A
O749        V752   1.899   1_455  S
O749        C754   1.264   1_455  A
V751        V752   2.090       .  T
C754        C809   1.465       .  S
C755        C783   1.463       .  S
C756        C784   1.463       .  S
O757        V765   1.898       .  S
O757        C767   1.264       .  A
O758        V765   1.898       .  S
O758        C768   1.264       .  A
O759        V765   1.899       .  S
O759        C769   1.263       .  A
O760        V765   1.899       .  S
O760        C770   1.264       .  A
O761        V766   1.899       .  S
O761       C1106   1.264       .  A
O762        V766   1.899       .  S
O762       C1105   1.263       .  A
O763        V766   1.898       .  S
O763       C1104   1.264       .  A
O764        V766   1.898       .  S
O764       C1103   1.264       .  A
V765       V1102   2.090   1_545  T
V766       V1101   2.090       .  T
C767       O1100   1.264   1_545  A
C768       O1099   1.264   1_545  A
C769       O1098   1.263   1_545  A
C770       O1097   1.264   1_545  A
C770        C825   1.465       .  S
O771        V779   1.899       .  S
O771        C781   1.263       .  A
O772        V779   1.899       .  S
O772        C782   1.264       .  A
O773        V779   1.898       .  S
O773        C783   1.264       .  A
O774        V779   1.898       .  S
O774        C784   1.264       .  A
O775        V780   1.898       .  S
O775        C784   1.264       .  A
O776        V780   1.898       .  S
O776        C783   1.264       .  A
O777        V780   1.899       .  S
O777        C782   1.264       .  A
O778        V780   1.899       .  S
O778        C781   1.263       .  A
V779        V780   2.090       .  T
C782        C839   1.465       .  S
O785        V793   1.898   1_655  S
O785        C795   1.264       .  A
O786        C796   1.264       .  A
O787        V793   1.899       .  S
O787        C797   1.264       .  A
O789       C1134   1.264       .  A
O790        V794   1.899       .  S
O791        V794   1.898       .  S
O791       C1132   1.264       .  A
O792       C1131   1.264       .  A
C795       O1128   1.264   1_545  A
C795        C824   1.463       .  S
C796       O1127   1.264   1_545  A
C796        C823   1.463       .  S
C798       O1125   1.264   1_545  A
C798        C964   1.465   1_455  S
O799        V807   1.899       .  S
O799        C809   1.264   1_455  A
O801        C811   1.264       .  A
O802        V807   1.898   1_655  S
O802        C812   1.264       .  A
O803        V808   1.898   1_655  S
O803        C812   1.264       .  A
O804        C811   1.264       .  A
O805        V808   1.899       .  S
O805        C810   1.264       .  A
V807        V808   2.090       .  T
C810        C978   1.465       .  S
C811        C837   1.463       .  S
C812        C838   1.463       .  S
O813        V821   1.898       .  S
O813        C823   1.264       .  A
O814        V821   1.898       .  S
O814        C824   1.264       .  A
O815        V821   1.899       .  S
O815        C825   1.264       .  A
O816        V821   1.899       .  S
O816        C826   1.264       .  A
O817        V822   1.899       .  S
O817       C1162   1.264       .  A
O818        V822   1.899       .  S
O818       C1161   1.264       .  A
O819        V822   1.898       .  S
O819       C1160   1.264       .  A
O820        V822   1.898       .  S
O820       C1159   1.264       .  A
V821       V1158   2.090   1_545  T
V822       V1157   2.090       .  T
C823       O1156   1.264   1_545  A
C824       O1155   1.264   1_545  A
C825       O1154   1.264   1_545  A
C826       O1153   1.264   1_545  A
C826        C992   1.465       .  S
O827        V835   1.898       .  S
O827        C837   1.264       .  A
O828        V835   1.898       .  S
O828        C838   1.264       .  A
O829        V835   1.899       .  S
O829        C839   1.264       .  A
O830        V835   1.899       .  S
O830        C840   1.264       .  A
O831        V836   1.899       .  S
O831        C840   1.264       .  A
O832        V836   1.899       .  S
O832        C839   1.264       .  A
O833        V836   1.898       .  S
O833        C838   1.264       .  A
O834        V836   1.898       .  S
O834        C837   1.264       .  A
V835        V836   2.090       .  T
C840       C1007   1.465       .  S
O841        V849   1.899   1_556  S
O841        C851   1.264       .  A
O842       V1185   1.899       .  S
O842       C1188   1.264       .  A
O843       V1185   1.898       .  S
O843        C853   1.264       .  A
O844        V849   1.898       .  S
O844        C854   1.264       .  A
O845        V850   1.898       .  S
O846       V1186   1.898       .  S
O847        V850   1.899       .  S
O848       V1186   1.899   1_556  S
V849       O1178   1.899       .  S
V849       O1179   1.898   1_545  S
V850       O1182   1.898   1_545  S
V850       O1184   1.899   1_554  S
C851        C908   1.465       .  S
C852       O1178   1.264       .  A
C853        C867   1.463       .  S
C854        C868   1.463       .  S
O855        V863   1.899       .  S
O855        C865   1.264       .  A
O856        V863   1.899   1_556  S
O856        C866   1.264       .  A
O857        V863   1.898       .  S
O857        C867   1.264       .  A
O858        V863   1.898       .  S
O858        C868   1.264       .  A
O859        V864   1.898       .  S
O860        V864   1.898       .  S
O861        V864   1.899   1_556  S
O862        V864   1.899       .  S
O869        V877   1.898       .  S
O869        C879   1.264       .  A
O870       V1213   1.898       .  S
O870        C880   1.264       .  A
O871        V877   1.899       .  S
O871        C881   1.264       .  A
O872       V1213   1.899   1_556  S
O872       C1218   1.264       .  A
O873       V1214   1.899   1_556  S
O873        C882   1.264       .  A
O874        V878   1.899       .  S
O874       C1217   1.264       .  A
O875        V878   1.898       .  S
O875        C880   1.264       .  A
O876       V1214   1.898       .  S
O876        C879   1.264       .  A
V877       O1206   1.898   1_545  S
V877       O1208   1.899   1_554  S
V877       V1214   2.090       .  T
V878       O1209   1.899   1_554  S
V878       O1212   1.898       .  S
V878       V1213   2.090       .  T
C879        C895   1.463       .  S
C880        C896   1.463       .  S
C881       O1210   1.264       .  A
C882       O1208   1.264       .  A
C882        C937   1.465       .  S
O883        V891   1.899   1_556  S
O883        C893   1.264       .  A
O884        V891   1.899       .  S
O884        C894   1.264       .  A
O885        V891   1.898       .  S
O885        C895   1.264       .  A
O886        V891   1.898       .  S
O886        C896   1.264       .  A
O887        V892   1.898       .  S
O887        C896   1.264       .  A
O888        V892   1.898       .  S
O888        C895   1.264       .  A
O889        V892   1.899       .  S
O889        C894   1.264       .  A
O890        V892   1.899   1_556  S
O890        C893   1.264       .  A
V891        V892   2.090       .  T
C893        C950   1.465       .  S
O897        V905   1.899   1_565  S
O898       V1241   1.899       .  S
O898       C1244   1.264       .  A
O899       V1241   1.898       .  S
O899        C909   1.264       .  A
O900        V905   1.898       .  S
O900        C910   1.264       .  A
O901        V906   1.898       .  S
O902       V1242   1.898       .  S
O903        V906   1.899   1_565  S
O904       V1242   1.899       .  S
O904       C1243   1.263       .  A
V905       O1234   1.899       .  S
V905       O1235   1.898   1_545  S
V906       O1238   1.898   1_545  S
V906       O1240   1.899       .  S
C907       O1240   1.263       .  A
C907        C963   1.458       .  S
C908       O1234   1.264       .  A
C909        C921   1.463       .  S
C910        C922   1.463       .  S
O911        V919   1.898       .  S
O912        V919   1.898       .  S
O913        V919   1.899       .  S
O913        C923   1.264       .  A
O914        V919   1.899       .  S
O914        C924   1.263       .  A
O915        V920   1.899       .  S
O916        V920   1.899       .  S
O917        V920   1.898       .  S
O917        C922   1.264       .  A
O918        V920   1.898       .  S
O918        C921   1.264       .  A
C924        C977   1.458   1_655  S
O925        V933   1.898       .  S
O925        C935   1.264       .  A
O926       V1269   1.898       .  S
O926        C936   1.264       .  A
O927        V933   1.899   1_565  S
O927        C937   1.264   1_565  A
O928       V1269   1.899       .  S
O928       C1274   1.263       .  A
O929       V1270   1.899   1_565  S
O929        C938   1.263   1_565  A
O930        V934   1.899       .  S
O930       C1273   1.264       .  A
O931        V934   1.898       .  S
O931        C936   1.264       .  A
O932       V1270   1.898       .  S
O932        C935   1.264       .  A
V933       O1262   1.898   1_545  S
V933       O1264   1.899       .  S
V933       V1270   2.090       .  T
V934       O1265   1.899       .  S
V934       O1268   1.898       .  S
V934       V1269   2.090       .  T
C935        C951   1.463       .  S
C936        C952   1.463       .  S
C937       O1266   1.264       .  A
C938       O1264   1.263       .  A
C938        C991   1.458       .  S
O939        V947   1.899       .  S
O939        C949   1.263       .  A
O940        V947   1.899       .  S
O940        C950   1.264       .  A
O941        V947   1.898       .  S
O941        C951   1.264       .  A
O942        V947   1.898       .  S
O942        C952   1.264       .  A
O943        V948   1.898       .  S
O943        C952   1.264       .  A
O944        V948   1.898       .  S
O944        C951   1.264       .  A
O945        V948   1.899       .  S
O945        C950   1.264       .  A
O946        V948   1.899       .  S
O946        C949   1.263       .  A
V947        V948   2.090       .  T
C949       C1008   1.458       .  S
O954        V961   1.899   1_455  S
O954        C964   1.264   1_455  A
O955        V961   1.898       .  S
O955        C965   1.264       .  A
O956        C966   1.264       .  A
O957       C1302   1.264       .  A
O958        V962   1.898       .  S
O958       C1301   1.264       .  A
O960        V962   1.899   1_455  S
O960       C1299   1.263   1_455  A
V961       V1298   2.090   1_545  T
V962       V1297   2.090       .  T
C963       O1296   1.263   1_645  A
C965       O1294   1.264   1_545  A
C965        C994   1.463       .  S
C966       O1293   1.264   1_545  A
C966        C993   1.463       .  S
O968        V975   1.899       .  S
O968        C978   1.264       .  A
O969        V975   1.898   1_655  S
O969        C979   1.264       .  A
O970        C980   1.264       .  A
O971        C980   1.264       .  A
O972        V976   1.898   1_655  S
O972        C979   1.264       .  A
O974        V976   1.899       .  S
O974        C977   1.263       .  A
V975        V976   2.090       .  T
C979       C1006   1.463       .  S
C980       C1005   1.463       .  S
O981        V989   1.899       .  S
O981        C991   1.263       .  A
O982        V989   1.899       .  S
O982        C992   1.264       .  A
O983        V989   1.898       .  S
O983        C993   1.264       .  A
O984        V989   1.898       .  S
O984        C994   1.264       .  A
O985        V990   1.898       .  S
O985       C1330   1.264       .  A
O986        V990   1.898       .  S
O986       C1329   1.264       .  A
O987        V990   1.899       .  S
O987       C1328   1.264       .  A
O988        V990   1.899       .  S
O988       C1327   1.263       .  A
V989       V1326   2.090   1_545  T
V990       V1325   2.090       .  T
C991       O1324   1.263   1_545  A
C992       O1323   1.264   1_545  A
C993       O1322   1.264   1_545  A
C994       O1321   1.264   1_545  A
O995       V1003   1.898       .  S
O995       C1005   1.264       .  A
O996       V1003   1.898       .  S
O996       C1006   1.264       .  A
O997       V1003   1.899       .  S
O997       C1007   1.264       .  A
O998       V1003   1.899       .  S
O998       C1008   1.263       .  A
O999       V1004   1.899       .  S
O999       C1008   1.263       .  A
O1000      V1004   1.899       .  S
O1000      C1007   1.264       .  A
O1001      V1004   1.898       .  S
O1001      C1006   1.264       .  A
O1002      V1004   1.898       .  S
O1002      C1005   1.264       .  A
V1003      V1004   2.090       .  T
O1009      V1017   1.898   1_565  S
O1011      V1017   1.899       .  S
O1012      C1022   1.263       .  A
O1014      V1018   1.899       .  S
O1014      C1021   1.264       .  A
O1015      V1018   1.898       .  S
O1015      C1020   1.264       .  A
O1016      C1019   1.264       .  A
C1019      C1035   1.463       .  S
C1020      C1036   1.463       .  S
C1021      C1188   1.465       .  S
O1023      V1031   1.899       .  S
O1024      V1031   1.899       .  S
O1024      C1034   1.264       .  A
O1025      V1031   1.898       .  S
O1025      C1035   1.264       .  A
O1026      V1031   1.898       .  S
O1026      C1036   1.264       .  A
O1027      V1032   1.898       .  S
O1028      V1032   1.898       .  S
O1029      V1032   1.899       .  S
O1030      V1032   1.899       .  S
O1030      C1033   1.263       .  A
C1033      C1089   1.458       .  S
C1034      C1201   1.465       .  S
O1037      V1045   1.898       .  S
O1037      C1047   1.264       .  A
O1038      C1048   1.264       .  A
O1039      V1045   1.899       .  S
O1039      C1049   1.263       .  A
O1041      C1050   1.264       .  A
O1042      V1046   1.899       .  S
O1043      V1046   1.898   1_565  S
O1043      C1048   1.264       .  A
O1044      C1047   1.264       .  A
C1047      C1061   1.463       .  S
C1048      C1062   1.463       .  S
C1049      C1105   1.458       .  S
C1050      C1217   1.465       .  S
O1051      V1059   1.898       .  S
O1051      C1061   1.264       .  A
O1052      V1059   1.898       .  S
O1052      C1062   1.264       .  A
O1053      V1059   1.899       .  S
O1053      C1063   1.263       .  A
O1054      V1059   1.899       .  S
O1054      C1064   1.264       .  A
O1055      V1060   1.899       .  S
O1055      C1064   1.264       .  A
O1056      V1060   1.899       .  S
O1056      C1063   1.263       .  A
O1057      V1060   1.898       .  S
O1057      C1062   1.264       .  A
O1058      V1060   1.898       .  S
O1058      C1061   1.264       .  A
V1059      V1060   2.090       .  T
C1063      C1117   1.458       .  S
C1064      C1230   1.465       .  S
O1065      V1073   1.898       .  S
O1067      V1073   1.899   1_455  S
O1070      V1074   1.899       .  S
O1071      V1074   1.898       .  S
O1071      C1076   1.264       .  A
O1072      C1075   1.264       .  A
C1075      C1104   1.463       .  S
C1076      C1103   1.463       .  S
C1077      C1133   1.465       .  S
O1079      V1087   1.899   1_455  S
O1079      C1089   1.263   1_455  A
O1081      C1091   1.264       .  A
O1082      V1087   1.898       .  S
O1082      C1092   1.264       .  A
O1083      V1088   1.898       .  S
O1083      C1092   1.264       .  A
O1084      C1091   1.264       .  A
O1085      V1088   1.899   1_455  S
O1085      C1090   1.264   1_455  A
V1087      V1088   2.090       .  T
C1090      C1145   1.465       .  S
C1091      C1119   1.463       .  S
C1092      C1120   1.463       .  S
O1093      V1101   1.898       .  S
O1093      C1103   1.264       .  A
O1094      V1101   1.898       .  S
O1094      C1104   1.264       .  A
O1095      V1101   1.899       .  S
O1095      C1105   1.263       .  A
O1096      V1101   1.899       .  S
O1096      C1106   1.264       .  A
O1097      V1102   1.899       .  S
O1098      V1102   1.899       .  S
O1099      V1102   1.898       .  S
O1100      V1102   1.898       .  S
C1106      C1161   1.465       .  S
O1107      V1115   1.899       .  S
O1107      C1117   1.263       .  A
O1108      V1115   1.899       .  S
O1108      C1118   1.264       .  A
O1109      V1115   1.898       .  S
O1109      C1119   1.264       .  A
O1110      V1115   1.898       .  S
O1110      C1120   1.264       .  A
O1111      V1116   1.898       .  S
O1111      C1120   1.264       .  A
O1112      V1116   1.898       .  S
O1112      C1119   1.264       .  A
O1113      V1116   1.899       .  S
O1113      C1118   1.264       .  A
O1114      V1116   1.899       .  S
O1114      C1117   1.263       .  A
V1115      V1116   2.090       .  T
C1118      C1175   1.465       .  S
O1121      V1129   1.898   1_655  S
O1121      C1131   1.264       .  A
O1122      C1132   1.264       .  A
O1123      V1129   1.899       .  S
O1123      C1133   1.264       .  A
O1126      V1130   1.899       .  S
O1127      V1130   1.898       .  S
C1131      C1160   1.463       .  S
C1132      C1159   1.463       .  S
C1134      C1300   1.465   1_455  S
O1135      V1143   1.899       .  S
O1135      C1145   1.264   1_455  A
O1137      C1147   1.264       .  A
O1138      V1143   1.898   1_655  S
O1138      C1148   1.264       .  A
O1139      V1144   1.898   1_655  S
O1139      C1148   1.264       .  A
O1140      C1147   1.264       .  A
O1141      V1144   1.899       .  S
O1141      C1146   1.264       .  A
V1143      V1144   2.090       .  T
C1146      C1314   1.465       .  S
C1147      C1173   1.463       .  S
C1148      C1174   1.463       .  S
O1149      V1157   1.898       .  S
O1149      C1159   1.264       .  A
O1150      V1157   1.898       .  S
O1150      C1160   1.264       .  A
O1151      V1157   1.899       .  S
O1151      C1161   1.264       .  A
O1152      V1157   1.899       .  S
O1152      C1162   1.264       .  A
O1153      V1158   1.899       .  S
O1154      V1158   1.899       .  S
O1155      V1158   1.898       .  S
O1156      V1158   1.898       .  S
C1162      C1328   1.465       .  S
O1163      V1171   1.898       .  S
O1163      C1173   1.264       .  A
O1164      V1171   1.898       .  S
O1164      C1174   1.264       .  A
O1165      V1171   1.899       .  S
O1165      C1175   1.264       .  A
O1166      V1171   1.899       .  S
O1166      C1176   1.264       .  A
O1167      V1172   1.899       .  S
O1167      C1176   1.264       .  A
O1168      V1172   1.899       .  S
O1168      C1175   1.264       .  A
O1169      V1172   1.898       .  S
O1169      C1174   1.264       .  A
O1170      V1172   1.898       .  S
O1170      C1173   1.264       .  A
V1171      V1172   2.090       .  T
C1176      C1343   1.465       .  S
O1177      V1185   1.899   1_556  S
O1177      C1187   1.264       .  A
O1179      C1189   1.264       .  A
O1180      V1185   1.898       .  S
O1180      C1190   1.264       .  A
O1181      V1186   1.898       .  S
O1183      V1186   1.899       .  S
C1187      C1244   1.465       .  S
C1189      C1203   1.463       .  S
C1190      C1204   1.463       .  S
O1191      V1199   1.899       .  S
O1191      C1201   1.264       .  A
O1192      V1199   1.899   1_556  S
O1192      C1202   1.264       .  A
O1193      V1199   1.898       .  S
O1193      C1203   1.264       .  A
O1194      V1199   1.898       .  S
O1194      C1204   1.264       .  A
O1195      V1200   1.898       .  S
O1196      V1200   1.898       .  S
O1197      V1200   1.899   1_556  S
O1198      V1200   1.899       .  S
O1205      V1213   1.898       .  S
O1205      C1215   1.264       .  A
O1206      C1216   1.264       .  A
O1207      V1213   1.899       .  S
O1207      C1217   1.264       .  A
O1209      C1218   1.264       .  A
O1210      V1214   1.899       .  S
O1211      V1214   1.898   1_565  S
O1211      C1216   1.264       .  A
O1212      C1215   1.264       .  A
C1215      C1231   1.463       .  S
C1216      C1232   1.463       .  S
C1218      C1273   1.465       .  S
O1219      V1227   1.899   1_556  S
O1219      C1229   1.264       .  A
O1220      V1227   1.899       .  S
O1220      C1230   1.264       .  A
O1221      V1227   1.898       .  S
O1221      C1231   1.264       .  A
O1222      V1227   1.898       .  S
O1222      C1232   1.264       .  A
O1223      V1228   1.898       .  S
O1223      C1232   1.264       .  A
O1224      V1228   1.898       .  S
O1224      C1231   1.264       .  A
O1225      V1228   1.899       .  S
O1225      C1230   1.264       .  A
O1226      V1228   1.899   1_556  S
O1226      C1229   1.264       .  A
V1227      V1228   2.090       .  T
C1229      C1286   1.465       .  S
O1233      V1241   1.899       .  S
O1235      C1245   1.264       .  A
O1236      V1241   1.898       .  S
O1236      C1246   1.264       .  A
O1237      V1242   1.898       .  S
O1239      V1242   1.899       .  S
C1243      C1299   1.458       .  S
C1245      C1257   1.463       .  S
C1246      C1258   1.463       .  S
O1247      V1255   1.898       .  S
O1248      V1255   1.898       .  S
O1249      V1255   1.899       .  S
O1249      C1259   1.264       .  A
O1250      V1255   1.899       .  S
O1250      C1260   1.263       .  A
O1251      V1256   1.899       .  S
O1252      V1256   1.899       .  S
O1253      V1256   1.898       .  S
O1253      C1258   1.264       .  A
O1254      V1256   1.898       .  S
O1254      C1257   1.264       .  A
C1260      C1313   1.458   1_655  S
O1261      V1269   1.898       .  S
O1261      C1271   1.264       .  A
O1262      C1272   1.264       .  A
O1263      V1269   1.899       .  S
O1263      C1273   1.264       .  A
O1265      C1274   1.263       .  A
O1266      V1270   1.899       .  S
O1267      V1270   1.898   1_565  S
O1267      C1272   1.264       .  A
O1268      C1271   1.264       .  A
C1271      C1287   1.463       .  S
C1272      C1288   1.463       .  S
C1274      C1327   1.458       .  S
O1275      V1283   1.899       .  S
O1275      C1285   1.263       .  A
O1276      V1283   1.899       .  S
O1276      C1286   1.264       .  A
O1277      V1283   1.898       .  S
O1277      C1287   1.264       .  A
O1278      V1283   1.898       .  S
O1278      C1288   1.264       .  A
O1279      V1284   1.898       .  S
O1279      C1288   1.264       .  A
O1280      V1284   1.898       .  S
O1280      C1287   1.264       .  A
O1281      V1284   1.899       .  S
O1281      C1286   1.264       .  A
O1282      V1284   1.899       .  S
O1282      C1285   1.263       .  A
V1283      V1284   2.090       .  T
C1285      C1344   1.458       .  S
O1290      V1297   1.899   1_455  S
O1290      C1300   1.264   1_455  A
O1291      V1297   1.898       .  S
O1291      C1301   1.264       .  A
O1292      C1302   1.264       .  A
O1294      V1298   1.898       .  S
O1296      V1298   1.899   1_455  S
C1301      C1330   1.463       .  S
C1302      C1329   1.463       .  S
O1304      V1311   1.899       .  S
O1304      C1314   1.264       .  A
O1305      V1311   1.898   1_655  S
O1305      C1315   1.264       .  A
O1306      C1316   1.264       .  A
O1307      C1316   1.264       .  A
O1308      V1312   1.898   1_655  S
O1308      C1315   1.264       .  A
O1310      V1312   1.899       .  S
O1310      C1313   1.263       .  A
V1311      V1312   2.090       .  T
C1315      C1342   1.463       .  S
C1316      C1341   1.463       .  S
O1317      V1325   1.899       .  S
O1317      C1327   1.263       .  A
O1318      V1325   1.899       .  S
O1318      C1328   1.264       .  A
O1319      V1325   1.898       .  S
O1319      C1329   1.264       .  A
O1320      V1325   1.898       .  S
O1320      C1330   1.264       .  A
O1321      V1326   1.898       .  S
O1322      V1326   1.898       .  S
O1323      V1326   1.899       .  S
O1324      V1326   1.899       .  S
O1331      V1339   1.898       .  S
O1331      C1341   1.264       .  A
O1332      V1339   1.898       .  S
O1332      C1342   1.264       .  A
O1333      V1339   1.899       .  S
O1333      C1343   1.264       .  A
O1334      V1339   1.899       .  S
O1334      C1344   1.263       .  A
O1335      V1340   1.899       .  S
O1335      C1344   1.263       .  A
O1336      V1340   1.899       .  S
O1336      C1343   1.264       .  A
O1337      V1340   1.898       .  S
O1337      C1342   1.264       .  A
O1338      V1340   1.898       .  S
O1338      C1341   1.264       .  A
V1339      V1340   2.090       .  T
