geometry optimzed in LAMMPS
_audit_creation_date              2020-11-30 
_audit_creation_method            'lammps2cif' 
_symmetry_space_group_name_H-M    'P1' 
_symmetry_Int_Tables_number       1 
_symmetry_cell_setting            triclinic 
loop_ 
_symmetry_equiv_pos_as_xyz 
  x,y,z 
_cell_length_a                    36.42802048 
_cell_length_b                    36.53267651492694 
_cell_length_c                    36.347444101499086 
_cell_angle_alpha                 89.78560247910117 
_cell_angle_beta                  89.83300942636505 
_cell_angle_gamma                 90.22068749927567 
loop_ 
_atom_site_label 
_atom_site_type_symbol 
_atom_site_fract_x 
_atom_site_fract_y 
_atom_site_fract_z 
_atom_site_charge 
O1          O  0.93121977  0.00030736  0.93500561    -0.77200
C2          C  0.02073737  0.92791818  0.93320378     0.83800
O3          O  0.94493608  0.95774965  0.06227202    -0.78300
O4          O  0.07192338  0.97210399  0.02970257    -0.79800
O5          O  0.03340361  0.08100306  0.97121958    -0.79600
O6          O  0.94873269  0.05868316  0.93657070    -0.78200
Zn7        Zn  0.96054836  0.97233344  0.97114116     1.55700
O8          O  0.07490739  0.03626239  0.96760305    -0.79600
Cd9        Cd  0.98357698  0.05552924  0.98193224     1.59700
Cd10       Cd  0.98498121  0.99814807  0.05155880     1.59600
O11         O  0.96106749  0.08473727  0.02517495    -0.79600
O12         O  0.99334987  0.00376050  0.99715060    -1.90100
Cd13       Cd  0.04494547  0.99003813  0.98331920     1.59900
O14         O  0.96856125  0.04836806  0.07375236    -0.79600
O15         O  0.04720307  0.94769308  0.94479575    -0.78200
C16         C  0.92443452  0.94059493  0.03960364     0.84300
C17         C  0.92973139  0.03285515  0.92266129     0.84000
O18         O  0.98771971  0.93488667  0.94209014    -0.77200
C19         C  0.06643763  0.07013939  0.96719138     0.84800
O20         O  0.92713506  0.94520886  0.00503855    -0.77300
C21         C  0.95975739  0.07932392  0.05983124     0.84900
C22         C  0.06548573  0.97369890  0.06413072     0.85200
O23         O  0.03426159  0.98357697  0.07668960    -0.79700
O24         O  0.06659091  0.24966384  0.18108664    -0.77200
C25         C  0.06307364  0.17862184  0.27237220     0.83800
O26         O  0.93883890  0.21120572  0.18622442    -0.78300
O27         O  0.96134934  0.22687293  0.31962193    -0.79800
O28         O  0.02996648  0.33166722  0.28154739    -0.79600
O29         O  0.06251540  0.30896025  0.19444823    -0.78200
Zn30       Zn  0.02867844  0.22242623  0.20953873     1.55700
O31         O  0.02813932  0.28699675  0.32379682    -0.79600
Cd32       Cd  0.01765065  0.30685067  0.23133087     1.59700
Cd33       Cd  0.94810685  0.24909682  0.22857825     1.59600
O34         O  0.97367329  0.33802957  0.21226754    -0.79600
O35         O  0.00153204  0.25481307  0.24098276    -1.90100
Cd36       Cd  0.01106098  0.24106830  0.29413567     1.59900
O37         O  0.92590010  0.29990515  0.21551703    -0.79600
O38         O  0.04930309  0.19795918  0.29819689    -0.78200
C39         C  0.96236788  0.19300110  0.16780864     0.84300
C40         C  0.07791228  0.28243257  0.17757671     0.84000
O41         O  0.05603988  0.18518767  0.23874834    -0.77200
C42         C  0.03187162  0.32065340  0.31490118     0.84800
O43         O  0.99659596  0.19569403  0.17397136    -0.77300
C44         C  0.93916285  0.33195091  0.21050513     0.84900
C45         C  0.92807975  0.22663926  0.30852433     0.85200
O46         O  0.91971995  0.23280101  0.27503609    -0.79700
O47         O  0.74917836  0.18929425  0.56309150    -0.77200
C48         C  0.67954698  0.28392466  0.56462069     0.83800
O49         O  0.69593122  0.19214501  0.44123220    -0.78300
O50         O  0.71967497  0.32708938  0.45708139    -0.79800
O51         O  0.82824992  0.28063062  0.52083537    -0.79600
O52         O  0.80648832  0.19321386  0.54190924    -0.78200
Zn53       Zn  0.71774155  0.21885938  0.52888407     1.55700
O54         O  0.78843025  0.32691469  0.51913742    -0.79600
Cd55       Cd  0.79982324  0.23502744  0.50334148     1.59700
Cd56       Cd  0.73281938  0.23617950  0.44344920     1.59600
O57         O  0.82535842  0.22199161  0.45404321    -0.79600
O58         O  0.74687171  0.24808820  0.49551402    -1.90100
Cd59       Cd  0.73833086  0.30165552  0.50545499     1.59900
O60         O  0.77998566  0.22488781  0.41305973    -0.79600
O61         O  0.69862749  0.30816947  0.54759069    -0.78200
C62         C  0.68095065  0.17458558  0.46777939     0.84300
C63         C  0.78279915  0.18005704  0.56424292     0.84000
O64         O  0.68407959  0.24987294  0.55913087    -0.77200
C65         C  0.82098503  0.31461224  0.52361439     0.84800
O66         O  0.68716454  0.18276746  0.50118731    -0.77300
C67         C  0.81391958  0.22115830  0.42094780     0.84900
C68         C  0.70940513  0.31576410  0.42543769     0.85200
O69         O  0.71027157  0.28174717  0.41765268    -0.79700
O70         O  0.74968955  0.06453587  0.68041579    -0.77200
C71         C  0.67532158  0.96999330  0.67925365     0.83800
O72         O  0.69936992  0.05255136  0.80411363    -0.78300
O73         O  0.72187588  0.92183929  0.78315802    -0.79800
O74         O  0.82693384  0.96034729  0.71854149    -0.79600
O75         O  0.80788717  0.04729705  0.68713004    -0.78200
Zn76       Zn  0.71867737  0.03316335  0.71396981     1.55700
O77         O  0.78117252  0.91951995  0.71814991    -0.79600
Cd78       Cd  0.80109471  0.00957107  0.72976759     1.59700
Cd79       Cd  0.73962545  0.01302622  0.79659727     1.59600
O80         O  0.82874098  0.02861709  0.77504559    -0.79600
O81         O  0.74833972  0.00119739  0.74338214    -1.90100
Cd82       Cd  0.73507626  0.94851127  0.73409229     1.59900
O83         O  0.78798354  0.03010124  0.82100580    -0.79600
O84         O  0.69256297  0.94433474  0.69569526    -0.78200
C85         C  0.68309555  0.07160104  0.77974148     0.84300
C86         C  0.78358331  0.06742087  0.67220364     0.84000
O87         O  0.68339600  0.00360378  0.68401834    -0.77200
C88         C  0.81524731  0.92750184  0.71626039     0.84800
O89         O  0.68882589  0.06700476  0.74552177    -0.77300
C90         C  0.82067515  0.03330744  0.80881718     0.84900
C91         C  0.72205953  0.93240679  0.81656991     0.85200
O92         O  0.72623788  0.96596505  0.82508879    -0.79700
O93         O  0.18961027  0.00235641  0.17826991    -0.77200
C94         C  0.17471994  0.06736386  0.27401064     0.83800
O95         O  0.31115849  0.04508795  0.19803146    -0.78300
O96         O  0.27863271  0.03173844  0.32548648    -0.79800
O97         O  0.21702320  0.91940355  0.28330358    -0.79600
O98         O  0.19071374  0.94360079  0.19469676    -0.78200
Zn99       Zn  0.21996937  0.03086051  0.21341716     1.55700
O100        O  0.21966748  0.96377824  0.32557702    -0.79600
Cd101      Cd  0.23211649  0.94618016  0.23463576     1.59700
Cd102      Cd  0.30018237  0.00540575  0.23822661     1.59600
O103        O  0.27782091  0.91754720  0.21503861    -0.79600
O104        O  0.24606404  0.99856607  0.24579570    -1.90100
Cd105      Cd  0.23290337  0.01177584  0.29772295     1.59900
O106        O  0.32400096  0.95654852  0.22236650    -0.79600
O107        O  0.18995191  0.05000648  0.30040575    -0.78200
C108        C  0.28882551  0.06496320  0.17990380     0.84300
C109        C  0.17911811  0.96941936  0.17403583     0.84000
O110        O  0.18461671  0.06275801  0.24075842    -0.77200
C111        C  0.21547637  0.93024015  0.31664847     0.84800
O112        O  0.25423822  0.06233251  0.18400380    -0.77300
C113        C  0.31211790  0.92486403  0.21367507     0.84900
C114        C  0.31300085  0.03031809  0.31871051     0.85200
O115        O  0.32500677  0.02025678  0.28732971    -0.79700
O116        O  0.06580186  0.50599030  0.56395769    -0.77200
C117        C  0.06503580  0.56878266  0.46286466     0.83800
O118        O  0.94411670  0.54419132  0.56264078    -0.78300
O119        O  0.95602451  0.52534500  0.42951062    -0.79800
O120        O  0.03347097  0.42069925  0.46484158    -0.79600
O121        O  0.06046824  0.44607206  0.55404623    -0.78200
Zn122      Zn  0.03147941  0.53250252  0.53098413     1.55700
O123        O  0.01969556  0.46255771  0.42209711    -0.79600
Cd124      Cd  0.01811140  0.44660338  0.51424240     1.59700
Cd125      Cd  0.94993435  0.50536363  0.52117467     1.59600
O126        O  0.97240191  0.41569355  0.53090143    -0.79600
O127        O  0.00191675  0.49846254  0.50415440    -1.90100
Cd128      Cd  0.00664595  0.50997972  0.45025695     1.59900
O129        O  0.92628259  0.45552763  0.53418826    -0.79600
O130        O  0.04593372  0.55087204  0.43965355    -0.78200
C131        C  0.96792373  0.56764755  0.57289009     0.84300
C132        C  0.07556121  0.47320873  0.57044018     0.84000
O133        O  0.06179964  0.56365384  0.49732135    -0.77200
C134        C  0.02918183  0.43018646  0.43120216     0.84800
O135        O  0.00104566  0.56617951  0.56179421    -0.77300
C136        C  0.93829373  0.42282026  0.53514251     0.84900
C137        C  0.92416298  0.52819086  0.44385549     0.85200
O138        O  0.91851449  0.52322205  0.47805913    -0.79700
O139        O  0.43345336  0.30530647  0.75518581    -0.77200
C140        C  0.43519580  0.20849357  0.81839718     0.83800
O141        O  0.55787878  0.30611988  0.79596383    -0.78300
O142        O  0.54018470  0.17164166  0.77455815    -0.79800
O143        O  0.47523500  0.21456983  0.66767782    -0.79600
O144        O  0.44371058  0.29909370  0.69514414    -0.78200
Zn145      Zn  0.47017646  0.27628113  0.78300413     1.55700
O146        O  0.47846504  0.16929595  0.70888992    -0.79600
Cd147      Cd  0.48774538  0.26224613  0.69685256     1.59700
Cd148      Cd  0.55322836  0.26265068  0.75863828     1.59600
O149        O  0.53339858  0.28424652  0.66967676    -0.79600
O150        O  0.50054005  0.24941485  0.74912060    -1.90100
Cd151      Cd  0.49183528  0.19565368  0.75753945     1.59900
O152        O  0.57902280  0.27775370  0.70940129    -0.79600
O153        O  0.45091415  0.18592062  0.79686139    -0.78200
C154        C  0.53287979  0.32255570  0.81413518     0.84300
C155        C  0.42563691  0.31275816  0.72193352     0.84000
O156        O  0.44168484  0.24275577  0.81689010    -0.77200
C157        C  0.47387793  0.18054710  0.67598502     0.84800
O158        O  0.49927379  0.31315627  0.81198343    -0.77300
C159        C  0.56757316  0.28604948  0.67724818     0.84900
C160        C  0.57254602  0.18302766  0.78149551     0.85200
O161        O  0.58071067  0.21691968  0.77843621    -0.79700
O162        O  0.82189130  0.74836239  0.94593159    -0.77200
C163        C  0.73166391  0.82044309  0.93079024     0.83800
O164        O  0.79572607  0.81382802  0.06367966    -0.78300
O165        O  0.67148549  0.78074419  0.02970179    -0.79800
O166        O  0.71919998  0.67259200  0.98814865    -0.79600
O167        O  0.80560599  0.69094420  0.95939483    -0.78200
Zn168      Zn  0.79055219  0.78126602  0.97641383     1.55700
O169        O  0.67965371  0.71563737  0.96987265    -0.79600
Cd170      Cd  0.76689727  0.70052716  0.00065789     1.59700
Cd171      Cd  0.75992283  0.76970778  0.05745673     1.59600
O172        O  0.78340175  0.67923451  0.05099793    -0.79600
O173        O  0.75566020  0.75396809  0.00503370    -1.90100
Cd174      Cd  0.70465682  0.76392168  0.98651746     1.59900
O175        O  0.77851035  0.72666272  0.08916652    -0.79600
O176        O  0.70429055  0.80349304  0.94484677    -0.78200
C177        C  0.81948582  0.82612902  0.04092983     0.84300
C178        C  0.82450072  0.71405190  0.94089437     0.84000
O179        O  0.76432441  0.81342470  0.94080685    -0.77200
C180        C  0.68793613  0.68229285  0.97600512     0.84800
O181        O  0.82169813  0.81430777  0.00805969    -0.77300
C182        C  0.78491154  0.69291333  0.08321932     0.84900
C183        C  0.67657552  0.78420409  0.06421864     0.85200
O184        O  0.70842552  0.78156819  0.07845152    -0.79700
O185        O  0.31895698  0.23885028  0.93085545    -0.77200
C186        C  0.22673958  0.31467676  0.93351913     0.83800
O187        O  0.31884927  0.29403343  0.05188838    -0.78300
O188        O  0.18475141  0.27252503  0.03995772    -0.79800
O189        O  0.21856321  0.16391648  0.97607677    -0.79600
O190        O  0.30685202  0.18096847  0.94648623    -0.78200
Zn191      Zn  0.29059061  0.27107107  0.96493035     1.55700
O192        O  0.17853535  0.21011715  0.97563158    -0.79600
Cd193      Cd  0.26852625  0.18916295  0.98872415     1.59700
Cd194      Cd  0.27612173  0.25544650  0.05034993     1.59600
O195        O  0.28776889  0.16370658  0.03615862    -0.79600
O196        O  0.26104794  0.24289762  0.99858034    -1.90100
Cd197      Cd  0.20822963  0.25603031  0.99073105     1.59900
O198        O  0.29416226  0.20843846  0.07674204    -0.79600
O199        O  0.20207462  0.29779523  0.95193989    -0.78200
C200        C  0.33619618  0.30828913  0.02482389     0.84300
C201        C  0.32382844  0.20464333  0.92684653     0.84000
O202        O  0.26054138  0.30652779  0.93596784    -0.77200
C203        C  0.18591684  0.17612971  0.97280436     0.84800
O204        O  0.32735074  0.30105335  0.99184025    -0.77300
C205        C  0.29645921  0.17467044  0.06829905     0.84900
C206        C  0.19680832  0.27749960  0.07247643     0.85200
O207        O  0.23076874  0.27365207  0.08027275    -0.79700
O208        O  0.74563861  0.43362391  0.31141232    -0.77200
C209        C  0.82553426  0.44115345  0.22161345     0.83800
O210        O  0.79742606  0.55596812  0.31647850    -0.78300
O211        O  0.78298908  0.54904801  0.18197048    -0.79800
O212        O  0.67467969  0.48034196  0.20946415    -0.79600
O213        O  0.68782831  0.44887045  0.29871228    -0.78200
Zn214      Zn  0.77835974  0.46951520  0.28510913     1.55700
O215        O  0.72256578  0.48298143  0.17096675    -0.79600
Cd216      Cd  0.69659224  0.49237425  0.26122413     1.59700
Cd217      Cd  0.76041863  0.55482008  0.27311603     1.59600
O218        O  0.66869961  0.53873982  0.27995941    -0.79600
O219        O  0.75056153  0.50349068  0.25570376    -1.90100
Cd220      Cd  0.76695854  0.49838453  0.20302967     1.59900
O221        O  0.71224067  0.57983157  0.29036939    -0.79600
O222        O  0.80973459  0.46055922  0.19708927    -0.78200
C223        C  0.81199075  0.52909997  0.33336869     0.84300
C224        C  0.71124175  0.42886380  0.31544518     0.84000
O225        O  0.81573129  0.44220908  0.25522506    -0.77200
C226        C  0.68830741  0.47848313  0.17704621     0.84800
O227        O  0.80619650  0.49618237  0.32368940    -0.77300
C228        C  0.67843544  0.57071426  0.29036829     0.84900
C229        C  0.78523239  0.58101596  0.19583499     0.85200
O230        O  0.77947054  0.58685026  0.22994655    -0.79700
O231        O  0.43774765  0.92841000  0.49348953    -0.77200
C232        C  0.42679512  0.02779338  0.42818952     0.83800
O233        O  0.55617658  0.94082287  0.44717957    -0.78300
O234        O  0.53705775  0.07185723  0.46731928    -0.79800
O235        O  0.46913730  0.03401459  0.57447726    -0.79600
O236        O  0.44071570  0.94535876  0.55221733    -0.78200
Zn237      Zn  0.46723250  0.96403807  0.46393921     1.55700
O238        O  0.47285064  0.07527500  0.52933017    -0.79600
Cd239      Cd  0.48205934  0.98498436  0.54807703     1.59700
Cd240      Cd  0.54935104  0.98086816  0.48755169     1.59600
O241        O  0.52705362  0.96657346  0.57710482    -0.79600
O242        O  0.49651680  0.99413819  0.49544127    -1.90100
Cd243      Cd  0.48784065  0.04685587  0.48251785     1.59900
O244        O  0.57352111  0.96607396  0.53716154    -0.79600
O245        O  0.44687212  0.05267284  0.44248046    -0.78200
C246        C  0.53214746  0.92803563  0.42518941     0.84300
C247        C  0.42840282  0.92440600  0.52702581     0.84000
O248        O  0.43174348  0.99402768  0.43506859    -0.77200
C249        C  0.46855556  0.06717783  0.56323440     0.84800
O250        O  0.49828746  0.93594977  0.42828127    -0.77300
C251        C  0.56107418  0.96275544  0.56987565     0.84900
C252        C  0.57013493  0.06051855  0.46571658     0.85200
O253        O  0.57794211  0.02693592  0.47098290    -0.79700
O254        O  0.99723454  0.68749592  0.68583932    -0.77200
C255        C  0.06553045  0.78369041  0.68520747     0.83800
O256        O  0.04936279  0.69035129  0.80765604    -0.78300
O257        O  0.02174332  0.82299852  0.79362546    -0.79800
O258        O  0.91653926  0.78031365  0.72929894    -0.79600
O259        O  0.93838078  0.69422479  0.70093861    -0.78200
Zn260      Zn  0.02766217  0.71734398  0.71999940     1.55700
O261        O  0.95903983  0.82463667  0.72861912    -0.79600
Cd262      Cd  0.94413526  0.73267368  0.74298178     1.59700
Cd263      Cd  0.00923659  0.73099507  0.80489545     1.59600
O264        O  0.91835528  0.71302596  0.79020633    -0.79600
O265        O  0.99713855  0.74488535  0.75280574    -1.90100
Cd266      Cd  0.00711005  0.79848320  0.74416943     1.59900
O267        O  0.96244714  0.71254076  0.83191687    -0.79600
O268        O  0.04773004  0.80723617  0.70393571    -0.78200
C269        C  0.06548536  0.67407497  0.78119053     0.84300
C270        C  0.96345921  0.68006988  0.68107040     0.84000
O271        O  0.06024901  0.74948880  0.68922479    -0.77200
C272        C  0.92584215  0.81385142  0.72553948     0.84800
O273        O  0.05934521  0.68259905  0.74781451    -0.77300
C274        C  0.92895383  0.70750599  0.82315422     0.84900
C275        C  0.02657848  0.81101479  0.82629763     0.85200
O276        O  0.02495126  0.77696640  0.83409311    -0.79700
O277        O  0.43455699  0.81461237  0.24627239    -0.77200
C278        C  0.42448333  0.72520335  0.31984797     0.83800
O279        O  0.55749573  0.80166997  0.29585670    -0.78300
O280        O  0.53011413  0.67296093  0.28840428    -0.79800
O281        O  0.46964604  0.70600698  0.17307290    -0.79600
O282        O  0.43930781  0.79394235  0.18895706    -0.78200
Zn283      Zn  0.46753131  0.78395013  0.27770664     1.55700
O284        O  0.47045121  0.66686117  0.22039137    -0.79600
Cd285      Cd  0.48228637  0.75647123  0.19632591     1.59700
Cd286      Cd  0.54927857  0.75962251  0.25748962     1.59600
O287        O  0.52800463  0.77456210  0.16746421    -0.79600
O288        O  0.49560541  0.74962301  0.24954060    -1.90100
Cd289      Cd  0.48357322  0.69826908  0.26627373     1.59900
O290        O  0.57419946  0.77315645  0.20765533    -0.79600
O291        O  0.43986284  0.69787203  0.30434811    -0.78200
C292        C  0.53363210  0.82161667  0.31185676     0.84300
C293        C  0.42497488  0.81526521  0.21269074     0.84000
O294        O  0.43453147  0.75781306  0.31264609    -0.77200
C295        C  0.46733238  0.67352853  0.18600723     0.84800
O296        O  0.49943599  0.81742899  0.30649371    -0.77300
C297        C  0.56205693  0.77767985  0.17503657     0.84900
C298        C  0.56423784  0.68118744  0.28800054     0.85200
O299        O  0.57493771  0.71244081  0.27624855    -0.79700
O300        O  0.17704474  0.75187081  0.56605290    -0.77200
C301        C  0.17103435  0.68201172  0.46760064     0.83800
O302        O  0.29654777  0.69250549  0.55201946    -0.78300
O303        O  0.27547158  0.72531975  0.42200210    -0.79800
O304        O  0.21929928  0.83092318  0.46708166    -0.79600
O305        O  0.19422131  0.80984714  0.55651295    -0.78200
Zn306      Zn  0.20804663  0.71972172  0.53321039     1.55700
O307        O  0.21328697  0.78830489  0.42359291    -0.79600
Cd308      Cd  0.23328711  0.80238393  0.51458524     1.59700
Cd309      Cd  0.29277069  0.73425177  0.51276802     1.59600
O310        O  0.28311949  0.82585951  0.52891740    -0.79600
O311        O  0.24040532  0.74903320  0.50301867    -1.90100
Cd312      Cd  0.22856466  0.74027983  0.44992672     1.59900
O313        O  0.32204031  0.77913821  0.53129085    -0.79600
O314        O  0.18891791  0.69991980  0.44328870    -0.78200
C315        C  0.27085838  0.67834712  0.57136670     0.84300
C316        C  0.17458658  0.78592038  0.57320150     0.84000
O317        O  0.17550219  0.68742275  0.50193153    -0.77200
C318        C  0.21357079  0.82165380  0.43375786     0.84800
O319        O  0.23734624  0.68686004  0.56638978    -0.77300
C320        C  0.31538172  0.81328643  0.53363746     0.84900
C321        C  0.30894701  0.72029420  0.43066897     0.85200
O322        O  0.31965676  0.72064419  0.46405454    -0.79700
O323        O  0.31529026  0.43717669  0.76106427    -0.77200
C324        C  0.32079703  0.53932852  0.82610809     0.83800
O325        O  0.19764175  0.44303186  0.80732567    -0.78300
O326        O  0.21075638  0.57669757  0.78315034    -0.79800
O327        O  0.28249170  0.53705136  0.67840115    -0.79600
O328        O  0.30542857  0.44744624  0.70147606    -0.78200
Zn329      Zn  0.28534747  0.47245018  0.79039448     1.55700
O330        O  0.27738601  0.57921285  0.72195090    -0.79600
Cd331      Cd  0.26685051  0.48936516  0.70581498     1.59700
Cd332      Cd  0.20127967  0.48462808  0.76778238     1.59600
O333        O  0.22030185  0.47414660  0.67743754    -0.79600
O334        O  0.25366790  0.49970150  0.75852915    -1.90100
Cd335      Cd  0.26074283  0.55291501  0.76946708     1.59900
O336        O  0.17502868  0.47080773  0.71865140    -0.79600
O337        O  0.29976310  0.56229607  0.81031720    -0.78200
C338        C  0.22276632  0.43130001  0.82871063     0.84300
C339        C  0.32062166  0.42937219  0.72735774     0.84000
O340        O  0.31863445  0.50512420  0.81986505    -0.77200
C341        C  0.28302991  0.57046237  0.68850857     0.84800
O342        O  0.25593681  0.44198074  0.82567004    -0.77300
C343        C  0.18648406  0.46980470  0.68543990     0.84900
C344        C  0.17849817  0.56363967  0.78766030     0.85200
O345        O  0.17181973  0.52941851  0.78563957    -0.79700
O346        O  0.50254190  0.44683399  0.92435219    -0.77200
C347        C  0.44306312  0.42494367  0.02264807     0.83800
O348        O  0.45151404  0.56500486  0.95129372    -0.78300
O349        O  0.47596874  0.52745767  0.07906880    -0.79800
O350        O  0.58736331  0.47631963  0.02598138    -0.79600
O351        O  0.56161843  0.45323656  0.93839058    -0.78200
Zn352      Zn  0.47350526  0.47479347  0.96192681     1.55700
O353        O  0.54680891  0.47308649  0.07192489    -0.79600
Cd354      Cd  0.55698123  0.49215252  0.98039954     1.59700
Cd355      Cd  0.49213738  0.55488362  0.99066064     1.59600
O356        O  0.58194515  0.54104966  0.96556758    -0.79600
O357        O  0.50455576  0.50155222  0.99498358    -1.90100
Cd358      Cd  0.49648708  0.48483611  0.04724583     1.59900
O359        O  0.53965783  0.58343182  0.97867281    -0.79600
O360        O  0.46118317  0.43946075  0.04891052    -0.78200
C361        C  0.43330993  0.54189225  0.93239165     0.84300
C362        C  0.53616316  0.43927979  0.91880321     0.84000
O363        O  0.44493892  0.43722881  0.98987663    -0.77200
C364        C  0.57981273  0.47207450  0.06002821     0.84800
O365        O  0.43894739  0.50763849  0.93482080    -0.77300
C366        C  0.57223379  0.57425407  0.96987674     0.84900
C367        C  0.47168035  0.56164638  0.07310627     0.85200
O368        O  0.47580464  0.57558151  0.04113739    -0.79700
C369        C  0.34874874  0.55181266  0.85279311    -0.04000
C370        C  0.38579552  0.55487007  0.84174716    -0.01200
C371        C  0.41375462  0.55689092  0.86845828     0.03800
C372        C  0.40482801  0.55401079  0.90614353    -0.04000
C373        C  0.36767007  0.55458709  0.91718285    -0.01100
C374        C  0.33962047  0.55437106  0.89044246     0.03800
C375        C  0.39519512  0.55388558  0.80296667     0.38500
C376        C  0.35839730  0.55307803  0.95598396     0.38500
C377        C  0.30140268  0.55512787  0.90161280     0.36900
C378        C  0.45185035  0.56035553  0.85727689     0.36900
N379        N  0.27089139  0.55628137  0.91046499    -0.37900
N380        N  0.48223630  0.56365482  0.84845834    -0.37900
N381        N  0.35104861  0.55175339  0.98696016    -0.37400
N382        N  0.40264672  0.55295443  0.77201141    -0.37400
C383        C  0.27943050  0.65271372  0.60209920    -0.04000
C384        C  0.29940694  0.62019757  0.59640508    -0.01200
C385        C  0.30286084  0.59411652  0.62519628     0.03800
C386        C  0.28632245  0.60040577  0.66010812    -0.04000
C387        C  0.26859317  0.63452627  0.66616651    -0.01100
C388        C  0.26513140  0.66010562  0.63736192     0.03800
C389        C  0.31462420  0.61260437  0.56032848     0.38500
C390        C  0.25166114  0.64327193  0.70132308     0.38500
C391        C  0.24570239  0.69403615  0.64401763     0.36900
C392        C  0.32321149  0.56074361  0.61845726     0.36900
N393        N  0.22974814  0.72073809  0.64953895    -0.37900
N394        N  0.33939885  0.53411722  0.61291140    -0.37900
N395        N  0.23809496  0.65053654  0.72918611    -0.37400
N396        N  0.32669495  0.60651689  0.53151348    -0.37400
C397        C  0.46532886  0.58677882  0.10483496    -0.04000
C398        C  0.44062884  0.61645555  0.10197076    -0.01200
C399        C  0.43985947  0.64396863  0.12931138     0.03800
C400        C  0.46386208  0.64219966  0.15982089    -0.04000
C401        C  0.48738742  0.61160327  0.16345080    -0.01100
C402        C  0.48787106  0.58397807  0.13639583     0.03800
C403        C  0.41589440  0.61869741  0.07083888     0.38500
C404        C  0.51369442  0.60986966  0.19334138     0.38500
C405        C  0.51385223  0.55408136  0.13994326     0.36900
C406        C  0.41438305  0.67420197  0.12589502     0.36900
N407        N  0.53459521  0.53032778  0.14284889    -0.37900
N408        N  0.39407217  0.69833748  0.12315391    -0.37900
N409        N  0.53499346  0.60845266  0.21685005    -0.37400
N410        N  0.39613791  0.62044905  0.04601833    -0.37400
C411        C  0.39312455  0.72031615  0.34612255    -0.04000
C412        C  0.39342690  0.69310353  0.37397155    -0.01200
C413        C  0.36542223  0.69214504  0.40116714     0.03800
C414        C  0.33664351  0.71801828  0.40046895    -0.04000
C415        C  0.33565810  0.74429762  0.37179540    -0.01100
C416        C  0.36346121  0.74534021  0.34486476     0.03800
C417        C  0.42337718  0.66715541  0.37583916     0.38500
C418        C  0.30719386  0.77211456  0.37093888     0.38500
C419        C  0.36150520  0.77311162  0.31621597     0.36900
C420        C  0.36623998  0.66453923  0.42990235     0.36900
N421        N  0.35985399  0.79582712  0.29402929    -0.37900
N422        N  0.36684824  0.64254120  0.45288606    -0.37900
N423        N  0.28471343  0.79438961  0.36995784    -0.37400
N424        N  0.44725347  0.64640352  0.37737384    -0.37400
C425        C  0.09352697  0.79531880  0.65780812    -0.04000
C426        C  0.08336264  0.80110559  0.62079775    -0.01200
C427        C  0.11039919  0.80106676  0.59281055     0.03800
C428        C  0.14778161  0.79697729  0.60194099    -0.04000
C429        C  0.15816243  0.79671380  0.63932242    -0.01100
C430        C  0.13108640  0.79435716  0.66715353     0.03800
C431        C  0.04499179  0.80553956  0.61142470     0.38500
C432        C  0.19663839  0.79875190  0.64907800     0.38500
C433        C  0.14173884  0.78881233  0.70519029     0.36900
C434        C  0.09978658  0.80395826  0.55450504     0.36900
N435        N  0.15001704  0.78402847  0.73554418    -0.37900
N436        N  0.09148049  0.80634533  0.52388538    -0.37900
N437        N  0.22727438  0.80123811  0.65707696    -0.37400
N438        N  0.01441221  0.80953942  0.60393772    -0.37400
C439        C  0.09149021  0.64356066  0.78824720    -0.04000
C440        C  0.12129006  0.64750823  0.81276524    -0.01200
C441        C  0.14892848  0.62038944  0.81435765     0.03800
C442        C  0.14697145  0.58927297  0.79135568    -0.04000
C443        C  0.11585330  0.58440703  0.76854874    -0.01100
C444        C  0.08819783  0.61116154  0.76734485     0.03800
C445        C  0.12460271  0.68029193  0.83489411     0.38500
C446        C  0.11314706  0.55310364  0.74412253     0.38500
C447        C  0.05640194  0.60545204  0.74391714     0.36900
C448        C  0.17937729  0.62454293  0.83963498     0.36900
N449        N  0.03117081  0.60093896  0.72516368    -0.37900
N450        N  0.20359036  0.62779939  0.85992369    -0.37900
N451        N  0.11084287  0.52830483  0.72452594    -0.37400
N452        N  0.12723621  0.70647759  0.85253275    -0.37400
C453        C  0.54286393  0.90332286  0.39472599    -0.04000
C454        C  0.55572957  0.86763543  0.40216022    -0.01200
C455        C  0.55612665  0.84110471  0.37391127     0.03800
C456        C  0.54461058  0.85056697  0.33806593    -0.04000
C457        C  0.53593024  0.88729601  0.32985043    -0.01100
C458        C  0.53472227  0.91353401  0.35813690     0.03800
C459        C  0.56592965  0.85750803  0.43933981     0.38500
C460        C  0.52669663  0.89767715  0.29243844     0.38500
C461        C  0.52376454  0.95082228  0.34985247     0.36900
C462        C  0.56522972  0.80340101  0.38238406     0.36900
N463        N  0.51498599  0.98054863  0.34329469    -0.37900
N464        N  0.57225212  0.77323330  0.38905710    -0.37900
N465        N  0.51949378  0.90596980  0.26256898    -0.37400
N466        N  0.57420821  0.84947315  0.46899688    -0.37400
C467        C  0.40236891  0.89422727  0.53587814    -0.04000
C468        C  0.36896177  0.90119683  0.55423549    -0.01200
C469        C  0.34136646  0.87387974  0.55598202     0.03800
C470        C  0.34670185  0.83951211  0.53867282    -0.04000
C471        C  0.38134347  0.83203226  0.52227463    -0.01100
C472        C  0.40908487  0.85900296  0.52159317     0.03800
C473        C  0.36202115  0.93724526  0.56930723     0.38500
C474        C  0.38804782  0.79775030  0.50328384     0.38500
C475        C  0.44459729  0.85066416  0.50535878     0.36900
C476        C  0.30724756  0.88166190  0.57503833     0.36900
N477        N  0.47287578  0.84399175  0.49246778    -0.37900
N478        N  0.28003053  0.88803252  0.59018782    -0.37900
N479        N  0.39350962  0.77060730  0.48791452    -0.37400
N480        N  0.35653260  0.96605317  0.58120937    -0.37400
C481        C  0.61057917  0.46924749  0.08714693    -0.04000
C482        C  0.64085624  0.49366939  0.08465281    -0.01200
C483        C  0.66682463  0.49571472  0.11337378     0.03800
C484        C  0.66319406  0.47313746  0.14497942    -0.04000
C485        C  0.63439934  0.44707032  0.14634713    -0.01100
C486        C  0.60835570  0.44504746  0.11755599     0.03800
C487        C  0.64476927  0.51812890  0.05327887     0.38500
C488        C  0.63192011  0.42181098  0.17714112     0.38500
C489        C  0.57988746  0.41722328  0.11870377     0.36900
C490        C  0.69610419  0.52278786  0.11105512     0.36900
N491        N  0.55739774  0.39477106  0.11946991    -0.37900
N492        N  0.71936510  0.54439149  0.10903733    -0.37900
N493        N  0.63011555  0.40166571  0.20173518    -0.37400
N494        N  0.64834482  0.53747171  0.02822787    -0.37400
C495        C  0.64942194  0.59875601  0.30022650    -0.04000
C496        C  0.61192980  0.58854273  0.30365590    -0.01200
C497        C  0.58386044  0.61530053  0.30256533     0.03800
C498        C  0.59278544  0.65309207  0.29899054    -0.04000
C499        C  0.63018972  0.66334399  0.30333877    -0.01100
C500        C  0.65822717  0.63656675  0.30378003     0.03800
C501        C  0.60181572  0.55044774  0.30946155     0.38500
C502        C  0.64033952  0.70156915  0.30802843     0.38500
C503        C  0.69597903  0.64861423  0.30815987     0.36900
C504        C  0.54593517  0.60324974  0.30493353     0.36900
N505        N  0.72598098  0.65856175  0.31178289    -0.37900
N506        N  0.51575477  0.59332568  0.30691541    -0.37900
N507        N  0.64857169  0.73192738  0.31189508    -0.37400
N508        N  0.59371000  0.52018442  0.31446212    -0.37400
C509        C  0.21695022  0.34579095  0.90938303    -0.04000
C510        C  0.22725334  0.38149205  0.91990776    -0.01200
C511        C  0.22594949  0.41037521  0.89418820     0.03800
C512        C  0.21448407  0.40372954  0.85770186    -0.04000
C513        C  0.20090928  0.36872466  0.84820691    -0.01100
C514        C  0.20241268  0.33969273  0.87399720     0.03800
C515        C  0.24059899  0.38817944  0.95690328     0.38500
C516        C  0.18790807  0.36190231  0.81119329     0.38500
C517        C  0.19152427  0.30302865  0.86335893     0.36900
C518        C  0.23722495  0.44686813  0.90508617     0.36900
N519        N  0.18300111  0.27369728  0.85491783    -0.37900
N520        N  0.24615356  0.47593835  0.91395450    -0.37900
N521        N  0.17750512  0.35650782  0.78164537    -0.37400
N522        N  0.25125412  0.39346925  0.98638564    -0.37400
C523        C  0.36749737  0.33419011  0.03048461    -0.04000
C524        C  0.36580688  0.36257821  0.05688426    -0.01200
C525        C  0.39200224  0.39136503  0.05614313     0.03800
C526        C  0.41982091  0.39195549  0.02897011    -0.04000
C527        C  0.42342360  0.36188837  0.00489347    -0.01100
C528        C  0.39780624  0.33300169  0.00600019     0.03800
C529        C  0.33605819  0.36350650  0.08343625     0.38500
C530        C  0.45317844  0.36093557  0.97814795     0.38500
C531        C  0.40267198  0.30216526  0.98136297     0.36900
C532        C  0.38877914  0.42159598  0.08166904     0.36900
N533        N  0.40672531  0.27783186  0.96149585    -0.37900
N534        N  0.38625769  0.44576663  0.10200223    -0.37900
N535        N  0.47662126  0.36023549  0.95659914    -0.37400
N536        N  0.31241517  0.36427926  0.10475525    -0.37400
C537        C  0.65880954  0.65426440  0.97323633    -0.04000
C538        C  0.64117089  0.64251386  0.00584595    -0.01200
C539        C  0.61167233  0.61770233  0.00411560     0.03800
C540        C  0.60099060  0.60280172  0.96994730    -0.04000
C541        C  0.61942647  0.61347224  0.93743789    -0.01100
C542        C  0.64795798  0.63977486  0.93900162     0.03800
C543        C  0.65366678  0.65570430  0.04137409     0.38500
C544        C  0.60873070  0.59768258  0.90253871     0.38500
C545        C  0.66673873  0.65127273  0.90570293     0.36900
C546        C  0.59288570  0.60671247  0.03776577     0.36900
N547        N  0.68183725  0.66041263  0.87913620    -0.37900
N548        N  0.57786119  0.59790186  0.06449817    -0.37900
N549        N  0.60013022  0.58498166  0.87473534    -0.37400
N550        N  0.66376831  0.66603669  0.06966781    -0.37400
C551        C  0.64421548  0.78824517  0.08921753    -0.04000
C552        C  0.61243852  0.76644697  0.08370795    -0.01200
C553        C  0.58506315  0.76417780  0.11116551     0.03800
C554        C  0.58867465  0.78411847  0.14433661    -0.04000
C555        C  0.61909296  0.80791070  0.14868524    -0.01100
C556        C  0.64652740  0.81016198  0.12114581     0.03800
C557        C  0.60840623  0.74457722  0.05066557     0.38500
C558        C  0.62231570  0.83011791  0.18152487     0.38500
C559        C  0.67692419  0.83557646  0.12541988     0.36900
C560        C  0.55451749  0.73896648  0.10610809     0.36900
N561        N  0.70107400  0.85597653  0.12862300    -0.37900
N562        N  0.53030031  0.71879562  0.10204982    -0.37900
N563        N  0.62501206  0.84779894  0.20774914    -0.37400
N564        N  0.60474396  0.72726680  0.02430996    -0.37400
C565        C  0.79045668  0.66804094  0.11531353    -0.04000
C566        C  0.76632378  0.67042317  0.14583871    -0.01200
C567        C  0.76592549  0.64274494  0.17290327     0.03800
C568        C  0.79059638  0.61297984  0.17074708    -0.04000
C569        C  0.81687045  0.61228013  0.14204167    -0.01100
C570        C  0.81641909  0.63936310  0.11409153     0.03800
C571        C  0.73957323  0.69977785  0.14822306     0.38500
C572        C  0.84448970  0.58381515  0.14134504     0.38500
C573        C  0.84251328  0.63756178  0.08393406     0.36900
C574        C  0.73746540  0.64336176  0.20096021     0.36900
N575        N  0.86320176  0.63612922  0.05975714    -0.37900
N576        N  0.71439251  0.64384167  0.22288362    -0.37900
N577        N  0.86677541  0.56132588  0.14087813    -0.37400
N578        N  0.71826405  0.72310995  0.15030736    -0.37400
C579        C  0.84964222  0.70169392  0.91152528    -0.04000
C580        C  0.88700866  0.69631851  0.91914016    -0.01200
C581        C  0.91259692  0.69327033  0.89006311     0.03800
C582        C  0.90122949  0.69818148  0.85285624    -0.04000
C583        C  0.86278175  0.69884668  0.84557343    -0.01100
C584        C  0.83729963  0.70082680  0.87488539     0.03800
C585        C  0.89934294  0.69600435  0.95708076     0.38500
C586        C  0.84878177  0.69827226  0.80824054     0.38500
C587        C  0.79827746  0.70395693  0.86738649     0.36900
C588        C  0.95050208  0.68526243  0.89907756     0.36900
N589        N  0.76717309  0.70646505  0.86152203    -0.37900
N590        N  0.98065383  0.67869475  0.90648014    -0.37900
N591        N  0.83727572  0.69773298  0.77859103    -0.37400
N592        N  0.90907250  0.69603153  0.98736266    -0.37400
C593        C  0.54465649  0.41218342  0.88956463    -0.04000
C594        C  0.55860617  0.37735228  0.89901888    -0.01200
C595        C  0.55756720  0.34844493  0.87321552     0.03800
C596        C  0.54217293  0.35413839  0.83807610    -0.04000
C597        C  0.53117019  0.38972361  0.82764356    -0.01100
C598        C  0.53282599  0.41871737  0.85317032     0.03800
C599        C  0.57149331  0.37052995  0.93611148     0.38500
C600        C  0.51709478  0.39625566  0.79089376     0.38500
C601        C  0.52196955  0.45529816  0.84215778     0.36900
C602        C  0.57022988  0.31228350  0.88352965     0.36900
N603        N  0.51366348  0.48454429  0.83322491    -0.37900
N604        N  0.58037452  0.28339437  0.89166813    -0.37900
N605        N  0.50584964  0.40148301  0.76159960    -0.37400
N606        N  0.58165061  0.36515357  0.96577335    -0.37400
C607        C  0.46951266  0.15294623  0.64598958    -0.04000
C608        C  0.49195860  0.15542853  0.61428457    -0.01200
C609        C  0.48998732  0.12856219  0.58656663     0.03800
C610        C  0.46647228  0.09770310  0.59066218    -0.04000
C611        C  0.44413913  0.09505264  0.62255581    -0.01100
C612        C  0.44546422  0.12263451  0.64988798     0.03800
C613        C  0.51988756  0.18377212  0.61158156     0.38500
C614        C  0.41948776  0.06411052  0.62726760     0.38500
C615        C  0.42201099  0.11975057  0.68209736     0.36900
C616        C  0.51423480  0.13194733  0.55487488     0.36900
N617        N  0.40335677  0.11745115  0.70784056    -0.37900
N618        N  0.53353442  0.13491811  0.52967262    -0.37900
N619        N  0.39986616  0.03939198  0.63113180    -0.37400
N620        N  0.54276266  0.20572805  0.60948238    -0.37400
C621        C  0.35164018  0.19327062  0.89946758    -0.04000
C622        C  0.38885051  0.19172966  0.91006074    -0.01200
C623        C  0.41679948  0.19333545  0.88311718     0.03800
C624        C  0.40754584  0.19558467  0.84552930    -0.04000
C625        C  0.37045999  0.19204786  0.83487922    -0.01100
C626        C  0.34244972  0.19158055  0.86184671     0.03800
C627        C  0.39826993  0.19074230  0.94880096     0.38500
C628        C  0.36113018  0.19069876  0.79615960     0.38500
C629        C  0.30418643  0.19146293  0.85096611     0.36900
C630        C  0.45504292  0.19415663  0.89403034     0.36900
N631        N  0.27362261  0.19140314  0.84236088    -0.37900
N632        N  0.48557785  0.19466264  0.90271999    -0.37900
N633        N  0.35376282  0.18936129  0.76524022    -0.37400
N634        N  0.40563833  0.18994074  0.97974539    -0.37400
C635        C  0.39503486  0.33889635  0.71562210    -0.04000
C636        C  0.36241656  0.33511313  0.73652423    -0.01200
C637        C  0.33701663  0.36396527  0.73820602     0.03800
C638        C  0.34394992  0.39709932  0.71917838    -0.04000
C639        C  0.37463127  0.39964253  0.69541501    -0.01100
C640        C  0.40015857  0.37054776  0.69361263     0.03800
C641        C  0.35529087  0.30183879  0.75735145     0.38500
C642        C  0.38130875  0.43305047  0.67477853     0.38500
C643        C  0.43298835  0.37441054  0.67126134     0.36900
C644        C  0.30384879  0.35969462  0.76018055     0.36900
N645        N  0.45921934  0.37740738  0.65344411    -0.37900
N646        N  0.27748824  0.35634275  0.77774778    -0.37900
N647        N  0.38667370  0.45970526  0.65828506    -0.37400
N648        N  0.34938666  0.27559348  0.77429693    -0.37400
C649        C  0.15955418  0.46719827  0.65452233    -0.04000
C650        C  0.12910553  0.44300057  0.65586888    -0.01200
C651        C  0.10249240  0.44329763  0.62743013     0.03800
C652        C  0.10592133  0.46796028  0.59751499    -0.04000
C653        C  0.13699162  0.49132150  0.59567764    -0.01100
C654        C  0.16324033  0.49133056  0.62406667     0.03800
C655        C  0.12484723  0.41803548  0.68669316     0.38500
C656        C  0.14192926  0.51611304  0.56465116     0.38500
C657        C  0.19265128  0.51836007  0.62286346     0.36900
C658        C  0.07061793  0.41954449  0.62999538     0.36900
N659        N  0.21584610  0.54008853  0.62180108    -0.37900
N660        N  0.04513301  0.40062391  0.63201668    -0.37900
N661        N  0.14596544  0.53613181  0.54020792    -0.37400
N662        N  0.12135477  0.39820123  0.71136928    -0.37400
C663        C  0.89209022  0.53432512  0.41948714    -0.04000
C664        C  0.89421559  0.55939666  0.38983299    -0.01200
C665        C  0.86659210  0.55980382  0.36265944     0.03800
C666        C  0.83664143  0.53521973  0.36517070    -0.04000
C667        C  0.83266650  0.51286102  0.39675868    -0.01100
C668        C  0.86034515  0.51211735  0.42364555     0.03800
C669        C  0.92505160  0.58451547  0.38705936     0.38500
C670        C  0.80032792  0.48980058  0.40125305     0.38500
C671        C  0.85700842  0.48637885  0.45408846     0.36900
C672        C  0.87026435  0.58395942  0.33110133     0.36900
N673        N  0.85419197  0.46579064  0.47823209    -0.37900
N674        N  0.87323118  0.60328166  0.30595475    -0.37900
N675        N  0.77465434  0.47134487  0.40480815    -0.37400
N676        N  0.94964753  0.60456568  0.38494369    -0.37400
C677        C  0.09189811  0.59690134  0.45087217    -0.04000
C678        C  0.08085630  0.63381108  0.44865547    -0.01200
C679        C  0.10714707  0.66212020  0.45176286     0.03800
C680        C  0.14456816  0.65344801  0.45617847    -0.04000
C681        C  0.15600190  0.61667833  0.45357220    -0.01100
C682        C  0.12963663  0.58840457  0.45094751     0.03800
C683        C  0.04231214  0.64252221  0.44450144     0.38500
C684        C  0.19476385  0.60791531  0.45532401     0.38500
C685        C  0.14113612  0.55047312  0.44970780     0.36900
C686        C  0.09562035  0.70006523  0.45227620     0.36900
N687        N  0.15028952  0.52019942  0.44848049    -0.37900
N688        N  0.08655229  0.73038734  0.45272361    -0.37900
N689        N  0.22571524  0.60100679  0.45661277    -0.37400
N690        N  0.01159173  0.64947507  0.44067286    -0.37400
C691        C  0.95439776  0.65424226  0.65110067    -0.04000
C692        C  0.96729561  0.66204323  0.61531756    -0.01200
C693        C  0.96916368  0.63412704  0.58887162     0.03800
C694        C  0.95774223  0.59814879  0.59785400    -0.04000
C695        C  0.94040014  0.59148956  0.63210698    -0.01100
C696        C  0.93904675  0.61949960  0.65889240     0.03800
C697        C  0.97964407  0.69876448  0.60602676     0.38500
C698        C  0.92607335  0.55537746  0.64068559     0.38500
C699        C  0.92431398  0.61183484  0.69521518     0.36900
C700        C  0.98358125  0.64241856  0.55252371     0.36900
N701        N  0.91256955  0.60576060  0.72423063    -0.37900
N702        N  0.99517501  0.64921337  0.52362838    -0.37900
N703        N  0.91443434  0.52660284  0.64745407    -0.37400
N704        N  0.98937627  0.72804323  0.59853708    -0.37400
C705        C  0.34007206  0.03793405  0.34885198    -0.04000
C706        C  0.33206514  0.02751915  0.38574520    -0.01200
C707        C  0.36014766  0.02701449  0.41241624     0.03800
C708        C  0.39633404  0.03724056  0.40290053    -0.04000
C709        C  0.40371367  0.05104506  0.36739194    -0.01100
C710        C  0.37572488  0.05158516  0.34048802     0.03800
C711        C  0.29563677  0.01499816  0.39629374     0.38500
C712        C  0.44073697  0.06246676  0.35786380     0.38500
C713        C  0.38398706  0.06581926  0.30406675     0.36900
C714        C  0.35210227  0.01467747  0.44963904     0.36900
N715        N  0.39065393  0.07715462  0.27501669    -0.37900
N716        N  0.34572923  0.00481510  0.47928521    -0.37900
N717        N  0.47031699  0.07148292  0.35033691    -0.37400
N718        N  0.26668286  0.00494280  0.40492177    -0.37400
C719        C  0.30248077  0.09237106  0.15309176    -0.04000
C720        C  0.30336335  0.12956603  0.16284126    -0.01200
C721        C  0.30683435  0.15679947  0.13540220     0.03800
C722        C  0.30646119  0.14696439  0.09751301    -0.04000
C723        C  0.31118488  0.10935625  0.08855398    -0.01100
C724        C  0.30906881  0.08225474  0.11635410     0.03800
C725        C  0.29898335  0.13980866  0.20115484     0.38500
C726        C  0.31828845  0.09810895  0.05096516     0.38500
C727        C  0.31204529  0.04379069  0.10702628     0.36900
C728        C  0.31065803  0.19463519  0.14678603     0.36900
N729        N  0.31463903  0.01311700  0.09964711    -0.37900
N730        N  0.31410771  0.22471383  0.15610828    -0.37900
N731        N  0.32410512  0.08899525  0.02104976    -0.37400
N732        N  0.29531232  0.14789149  0.23169645    -0.37400
C733        C  0.21179525  0.85073217  0.40507189    -0.04000
C734        C  0.18223594  0.85282218  0.38003165    -0.01200
C735        C  0.18289493  0.87889111  0.35103428     0.03800
C736        C  0.21331336  0.90265671  0.34677157    -0.04000
C737        C  0.24344216  0.89945432  0.37095732    -0.01100
C738        C  0.24245107  0.87416722  0.40027780     0.03800
C739        C  0.15114601  0.82827024  0.38427578     0.38500
C740        C  0.27689938  0.92010549  0.36379286     0.38500
C741        C  0.27426400  0.87066000  0.42407100     0.36900
C742        C  0.15248976  0.88109459  0.32552042     0.36900
N743        N  0.29969879  0.86776783  0.44285984    -0.37900
N744        N  0.12823604  0.88270661  0.30509028    -0.37900
N745        N  0.30375068  0.93601953  0.35756473    -0.37400
N746        N  0.12641652  0.80856312  0.38775358    -0.37400
C747        C  0.39565120  0.84138034  0.20225471    -0.04000
C748        C  0.40436910  0.87832398  0.19532091    -0.01200
C749        C  0.37641493  0.90504787  0.19471080     0.03800
C750        C  0.33955926  0.89546991  0.20390420    -0.04000
C751        C  0.33062713  0.85757250  0.20713730    -0.01100
C752        C  0.35858525  0.83081127  0.20561907     0.03800
C753        C  0.44243598  0.88903503  0.19013615     0.38500
C754        C  0.29317728  0.84554211  0.21369124     0.38500
C755        C  0.34947182  0.79224068  0.20922006     0.36900
C756        C  0.38600316  0.94231314  0.18440125     0.36900
N757        N  0.34232409  0.76146639  0.21209110    -0.37900
N758        N  0.39365459  0.97196229  0.17595637    -0.37900
N759        N  0.26338033  0.83564975  0.21891775    -0.37400
N760        N  0.47278784  0.89764807  0.18606962    -0.37400
C761        C  0.84230960  0.89709918  0.71590318    -0.04000
C762        C  0.87183405  0.89648781  0.69060582    -0.01200
C763        C  0.89867546  0.86863464  0.69279099     0.03800
C764        C  0.89650097  0.84162334  0.72069682    -0.04000
C765        C  0.86727157  0.84263494  0.74631580    -0.01100
C766        C  0.84034990  0.87008229  0.74389466     0.03800
C767        C  0.87468186  0.92456936  0.66243781     0.38500
C768        C  0.86618781  0.81691653  0.77695029     0.38500
C769        C  0.81219179  0.87193535  0.77219680     0.36900
C770        C  0.92830149  0.86753597  0.66610391     0.36900
N771        N  0.79012104  0.87316704  0.79510842    -0.37900
N772        N  0.95191958  0.86658343  0.64476495    -0.37900
N773        N  0.86544673  0.79663446  0.80148536    -0.37400
N774        N  0.87704228  0.94710374  0.64008519    -0.37400
C775        C  0.65665685  0.10025690  0.79057081    -0.04000
C776        C  0.66685379  0.13728187  0.78767570    -0.01200
C777        C  0.63989269  0.16490432  0.78753807     0.03800
C778        C  0.60198141  0.15551474  0.79065285    -0.04000
C779        C  0.59271104  0.11836935  0.79885843    -0.01100
C780        C  0.62000090  0.09097995  0.79846057     0.03800
C781        C  0.70540109  0.14689681  0.78465933     0.38500
C782        C  0.55517307  0.10761161  0.80711411     0.38500
C783        C  0.61027205  0.05294736  0.80504831     0.36900
C784        C  0.65186318  0.20255206  0.78254090     0.36900
N785        N  0.60260344  0.02263073  0.81049542    -0.37900
N786        N  0.66170302  0.23247065  0.77849332    -0.37900
N787        N  0.52528593  0.09877320  0.81357507    -0.37400
N788        N  0.73612851  0.15479363  0.78296324    -0.37400
C789        C  0.64397821  0.96164146  0.65456530    -0.04000
C790        C  0.64845023  0.93965160  0.62303932    -0.01200
C791        C  0.62016609  0.93754726  0.59648909     0.03800
C792        C  0.58744336  0.95795401  0.60100760    -0.04000
C793        C  0.58207158  0.97765598  0.63420181    -0.01100
C794        C  0.61010633  0.97924249  0.66075617     0.03800
C795        C  0.68297156  0.92102971  0.61675682     0.38500
C796        C  0.54878536  0.99856126  0.64049842     0.38500
C797        C  0.60436334  0.99997382  0.69431739     0.36900
C798        C  0.62487373  0.91442834  0.56448189     0.36900
N799        N  0.59975589  0.01660342  0.72095442    -0.37900
N800        N  0.62854943  0.89586741  0.53900854    -0.37900
N801        N  0.52236930  0.01528584  0.64575322    -0.37400
N802        N  0.71056814  0.90627043  0.61167313    -0.37400
C803        C  0.72158098  0.90464985  0.84687443    -0.04000
C804        C  0.69865800  0.87328851  0.84571907    -0.01200
C805        C  0.70094397  0.84611549  0.87357146     0.03800
C806        C  0.72635068  0.84994916  0.90274454    -0.04000
C807        C  0.74887818  0.88160870  0.90402649    -0.01100
C808        C  0.74703529  0.90826689  0.87607711     0.03800
C809        C  0.67299645  0.86863537  0.81565949     0.38500
C810        C  0.77449964  0.88706732  0.93412880     0.38500
C811        C  0.77360947  0.93809758  0.87631248     0.36900
C812        C  0.67825076  0.81350145  0.87116154     0.36900
N813        N  0.79505814  0.96155231  0.87662747    -0.37900
N814        N  0.66013884  0.78748472  0.86919220    -0.37900
N815        N  0.79523955  0.89142608  0.95777800    -0.37400
N816        N  0.65265583  0.86476471  0.79157036    -0.37400
C817        C  0.60087498  0.08757427  0.46055278    -0.04000
C818        C  0.63499746  0.08195567  0.47864264    -0.01200
C819        C  0.66209730  0.10959031  0.47844132     0.03800
C820        C  0.65566553  0.14336617  0.46072929    -0.04000
C821        C  0.62299715  0.14828125  0.44060238    -0.01100
C822        C  0.59562097  0.12065593  0.44061601     0.03800
C823        C  0.64185445  0.04892612  0.49993385     0.38500
C824        C  0.61670766  0.18257330  0.42143786     0.38500
C825        C  0.56177450  0.12689377  0.42066010     0.36900
C826        C  0.69665836  0.10342822  0.49726830     0.36900
N827        N  0.53467697  0.13205002  0.40495532    -0.37900
N828        N  0.72408620  0.09833116  0.51236751    -0.37900
N829        N  0.61177436  0.20992354  0.40609613    -0.37400
N830        N  0.64751405  0.02275271  0.51702469    -0.37400
C831        C  0.85225817  0.34056415  0.52984382    -0.04000
C832        C  0.84923457  0.37008601  0.55468731    -0.01200
C833        C  0.87841344  0.39553035  0.55856053     0.03800
C834        C  0.91086934  0.39215049  0.53721717    -0.04000
C835        C  0.91432990  0.36177943  0.51328372    -0.01100
C836        C  0.88530324  0.33632424  0.50958234     0.03800
C837        C  0.81609246  0.37431061  0.57645705     0.38500
C838        C  0.94672325  0.35771634  0.49022614     0.38500
C839        C  0.88876197  0.30714297  0.48270808     0.36900
C840        C  0.87501028  0.42513338  0.58481758     0.36900
N841        N  0.89162017  0.28402222  0.46120218    -0.37900
N842        N  0.87228515  0.44871144  0.60582115    -0.37900
N843        N  0.97239696  0.35427836  0.47174177    -0.37400
N844        N  0.78959305  0.37772131  0.59372349    -0.37400
C845        C  0.69931315  0.39938929  0.34124495    -0.04000
C846        C  0.69059948  0.40784637  0.37803093    -0.01200
C847        C  0.69036588  0.38003797  0.40530420     0.03800
C848        C  0.69902913  0.34327751  0.39597754    -0.04000
C849        C  0.70167379  0.33438600  0.35788161    -0.01100
C850        C  0.70284226  0.36246231  0.33095796     0.03800
C851        C  0.68340384  0.44554628  0.38804308     0.38500
C852        C  0.70402466  0.29667390  0.34575474     0.38500
C853        C  0.70886898  0.35352141  0.29253635     0.36900
C854        C  0.68095470  0.38956655  0.44286005     0.36900
N855        N  0.71363279  0.34645320  0.26188407    -0.37900
N856        N  0.67328536  0.39721233  0.47277847    -0.37900
N857        N  0.70566107  0.26666071  0.33579522    -0.37400
N858        N  0.67748487  0.47561405  0.39594407    -0.37400
C859        C  0.59511797  0.29527231  0.64719393    -0.04000
C860        C  0.58561931  0.29190879  0.60933302    -0.01200
C861        C  0.61331660  0.29013894  0.58204195     0.03800
C862        C  0.65056241  0.29446210  0.59148862    -0.04000
C863        C  0.65978540  0.30320559  0.62802333    -0.01100
C864        C  0.63236916  0.30362283  0.65578914     0.03800
C865        C  0.54758442  0.28958265  0.59778384     0.38500
C866        C  0.69790624  0.30998332  0.63733274     0.38500
C867        C  0.64293682  0.31284156  0.69308268     0.36900
C868        C  0.60359783  0.28227292  0.54415897     0.36900
N869        N  0.65151478  0.32028843  0.72277670    -0.37900
N870        N  0.59587999  0.27576418  0.51401145    -0.37900
N871        N  0.72832210  0.31547168  0.64466701    -0.37400
N872        N  0.51731260  0.28788917  0.58831552    -0.37400
C873        C  0.79356529  0.15255933  0.59216798    -0.04000
C874        C  0.80088825  0.11613838  0.58157520    -0.01200
C875        C  0.80048128  0.08784977  0.60822573     0.03800
C876        C  0.79422224  0.09630042  0.64553424    -0.04000
C877        C  0.79238020  0.13321810  0.65649663    -0.01100
C878        C  0.79099971  0.16126775  0.62985742     0.03800
C879        C  0.80683116  0.10760415  0.54311033     0.38500
C880        C  0.79199760  0.14217760  0.69528650     0.38500
C881        C  0.78589767  0.19896485  0.64114750     0.36900
C882        C  0.80476142  0.05003259  0.59716238     0.36900
N883        N  0.78177167  0.22900504  0.65022673    -0.37900
N884        N  0.80825503  0.01983211  0.58836010    -0.37900
N885        N  0.79267304  0.14926789  0.72625650    -0.37400
N886        N  0.81178073  0.10094678  0.51239386    -0.37400
C887        C  0.08841833  0.14759361  0.28029651    -0.04000
C888        C  0.08234046  0.11350929  0.26292534    -0.01200
C889        C  0.10981798  0.08642773  0.26308970     0.03800
C890        C  0.14366430  0.09287387  0.28085916    -0.04000
C891        C  0.14873682  0.12568717  0.30070894    -0.01100
C892        C  0.12126186  0.15309604  0.30027853     0.03800
C893        C  0.04798903  0.10655364  0.24394346     0.38500
C894        C  0.18319944  0.13228977  0.31944441     0.38500
C895        C  0.12808067  0.18800318  0.31787680     0.36900
C896        C  0.10359332  0.05204424  0.24411058     0.36900
N897        N  0.13355115  0.21595134  0.33176703    -0.37900
N898        N  0.09876921  0.02464105  0.22894731    -0.37900
N899        N  0.21071104  0.13755010  0.33439397    -0.37400
N900        N  0.02067038  0.10105396  0.22872063    -0.37400
C901        C  0.85675644  0.41689748  0.21179966    -0.04000
C902        C  0.85120054  0.38536562  0.19023862    -0.01200
C903        C  0.87906563  0.35857052  0.18750254     0.03800
C904        C  0.91310006  0.36342295  0.20581674    -0.04000
C905        C  0.91982164  0.39716259  0.22398838    -0.01100
C906        C  0.89154195  0.42328413  0.22754654     0.03800
C907        C  0.81609346  0.37962702  0.17240724     0.38500
C908        C  0.95513745  0.40474706  0.24076645     0.38500
C909        C  0.89794294  0.45659619  0.24831544     0.36900
C910        C  0.87247108  0.32589441  0.16593243     0.36900
N911        N  0.90294249  0.48310419  0.26494094    -0.37900
N912        N  0.86716014  0.29982183  0.14872583    -0.37900
N913        N  0.98327724  0.41114290  0.25403814    -0.37400
N914        N  0.78808850  0.37517936  0.15811719    -0.37400
C915        C  0.16972633  0.28517527  0.10250608    -0.04000
C916        C  0.17184651  0.26578204  0.13625679    -0.01200
C917        C  0.14291562  0.26768131  0.16202681     0.03800
C918        C  0.11102448  0.28815480  0.15417692    -0.04000
C919        C  0.10957921  0.30915173  0.12155496    -0.01100
C920        C  0.13913691  0.30824099  0.09615461     0.03800
C921        C  0.20231469  0.24138964  0.14361486     0.38500
C922        C  0.07661147  0.32946312  0.11278181     0.38500
C923        C  0.13796232  0.33098476  0.06338489     0.36900
C924        C  0.14532980  0.24718875  0.19629682     0.36900
N925        N  0.13720469  0.34930841  0.03735400    -0.37900
N926        N  0.14712270  0.23079537  0.22354027    -0.37900
N927        N  0.05017916  0.34540489  0.10557785    -0.37400
N928        N  0.22633945  0.22166809  0.14967413    -0.37400
C929        C  0.03284469  0.34865967  0.34462621    -0.04000
C930        C  0.06381803  0.35393176  0.36735277    -0.01200
C931        C  0.06298011  0.38038948  0.39591480     0.03800
C932        C  0.03133353  0.40204510  0.40150945    -0.04000
C933        C  0.00027156  0.39628778  0.37888494    -0.01100
C934        C  0.00088808  0.36948414  0.35108596     0.03800
C935        C  0.09655125  0.33241452  0.36110520     0.38500
C936        C  0.96684354  0.41698566  0.38509919     0.38500
C937        C  0.96771989  0.36190252  0.33029348     0.36900
C938        C  0.09488034  0.38590928  0.41897851     0.36900
N939        N  0.94121503  0.35546865  0.31403007    -0.37900
N940        N  0.12031961  0.39037586  0.43744996    -0.37900
N941        N  0.94022508  0.43348836  0.39001210    -0.37400
N942        N  0.12273592  0.31527767  0.35609228    -0.37400
C943        C  0.84140576  0.21941947  0.39044794    -0.04000
C944        C  0.87072501  0.19410634  0.39113369    -0.01200
C945        C  0.89859811  0.19552252  0.36386151     0.03800
C946        C  0.89757569  0.22243969  0.33580327    -0.04000
C947        C  0.86796871  0.24749044  0.33498768    -0.01100
C948        C  0.84019148  0.24596469  0.36203262     0.03800
C949        C  0.87211980  0.16638774  0.41975234     0.38500
C950        C  0.86703607  0.27664660  0.30765357     0.38500
C951        C  0.81183302  0.27380688  0.36200460     0.36900
C952        C  0.92798755  0.16886700  0.36435242     0.36900
N953        N  0.78955738  0.29629207  0.36198036    -0.37900
N954        N  0.95140787  0.14755022  0.36465682    -0.37900
N955        N  0.86620010  0.29992611  0.28598089    -0.37400
N956        N  0.87326923  0.14427571  0.44260252    -0.37400
C957        C  0.89702435  0.91331781  0.05240188    -0.04000
C958        C  0.90819678  0.87697146  0.05928033    -0.01200
C959        C  0.88215596  0.84823346  0.05857199     0.03800
C960        C  0.84484279  0.85592137  0.05185713    -0.04000
C961        C  0.83313445  0.89262403  0.04965683    -0.01100
C962        C  0.85926585  0.92125404  0.04921640     0.03800
C963        C  0.94679302  0.86890558  0.06443849     0.38500
C964        C  0.79439767  0.90072652  0.04567411     0.38500
C965        C  0.84758433  0.95871306  0.04326544     0.36900
C966        C  0.89383436  0.81059868  0.06323637     0.36900
N967        N  0.83834168  0.98861066  0.03840368    -0.37900
N968        N  0.90302097  0.78053484  0.06705001    -0.37900
N969        N  0.76346466  0.90712318  0.04258534    -0.37400
N970        N  0.97759204  0.86249542  0.06861685    -0.37400
C971        C  0.15475537  0.14986128  0.96914495    -0.04000
C972        C  0.12578957  0.15117308  0.99511055    -0.01200
C973        C  0.09727698  0.12506434  0.99416683     0.03800
C974        C  0.09626070  0.09818642  0.96623923    -0.04000
C975        C  0.12496829  0.09700730  0.93999330    -0.01100
C976        C  0.15440451  0.12244437  0.94176498     0.03800
C977        C  0.12625241  0.17819372  0.02437891     0.38500
C978        C  0.12401270  0.06993575  0.91095005     0.38500
C979        C  0.18411139  0.12062725  0.91521583     0.36900
C980        C  0.07066403  0.12408951  0.02402031     0.36900
N981        N  0.20790826  0.11910190  0.89411715    -0.37900
N982        N  0.04993334  0.12296311  0.04818210    -0.37900
N983        N  0.12317733  0.04839300  0.88769730    -0.37400
N984        N  0.12653019  0.19969939  0.04768563    -0.37400
C985        C  0.02745845  0.89564711  0.90897162    -0.04000
C986        C  0.00631310  0.86336570  0.91414586    -0.01200
C987        C  0.00779708  0.83479994  0.88824028     0.03800
C988        C  0.03063376  0.83791279  0.85679121    -0.04000
C989        C  0.05397118  0.86873617  0.85313955    -0.01100
C990        C  0.05250713  0.89745573  0.87915372     0.03800
C991        C  0.98243444  0.85944814  0.94605725     0.38500
C992        C  0.07954569  0.87088482  0.82253869     0.38500
C993        C  0.07559367  0.92950659  0.87407937     0.36900
C994        C  0.98385840  0.80321601  0.89309168     0.36900
N995        N  0.09413899  0.95501064  0.87004285    -0.37900
N996        N  0.96471165  0.77815621  0.89714198    -0.37900
N997        N  0.10002109  0.87248193  0.79817460    -0.37400
N998        N  0.96320616  0.85631290  0.97129038    -0.37400
C999        C  0.09621732  0.96615746  0.09024019    -0.04000
C1000       C  0.13221748  0.97879209  0.08190530    -0.01200
C1001       C  0.16014005  0.97665711  0.10854085     0.03800
C1002       C  0.15258662  0.96234300  0.14390627    -0.04000
C1003       C  0.11778738  0.94681814  0.15127486    -0.01100
C1004       C  0.08965234  0.94876061  0.12457363     0.03800
C1005       C  0.14045477  0.99633507  0.04686917     0.38500
C1006       C  0.11031123  0.93055239  0.18697704     0.38500
C1007       C  0.05388293  0.93305394  0.13265523     0.36900
C1008       C  0.19674453  0.99011016  0.09977272     0.36900
N1009       N  0.02532120  0.92055738  0.13907549    -0.37900
N1010       N  0.22586042  0.00087105  0.09275035    -0.37900
N1011       N  0.10437990  0.91746009  0.21543205    -0.37400
N1012       N  0.14723034  0.01031931  0.01901935    -0.37400
C1013       C  0.85122255  0.03806642  0.83525526    -0.04000
C1014       C  0.84987898  0.06450763  0.86355472    -0.01200
C1015       C  0.87731066  0.06508356  0.89104769     0.03800
C1016       C  0.90590790  0.03909212  0.89031601    -0.04000
C1017       C  0.90857787  0.01451301  0.86054747    -0.01100
C1018       C  0.88088958  0.01319974  0.83383960     0.03800
C1019       C  0.81983130  0.09039072  0.86496558     0.38500
C1020       C  0.93963429  0.98976079  0.85777577     0.38500
C1021       C  0.88130453  0.98366886  0.80711600     0.36900
C1022       C  0.87514146  0.09118105  0.92091730     0.36900
N1023       N  0.88146464  0.95981808  0.78624472    -0.37900
N1024       N  0.87352582  0.11209355  0.94470316    -0.37900
N1025       N  0.96434881  0.97007417  0.85548649    -0.37400
N1026       N  0.79577347  0.11095767  0.86619309    -0.37400
C1027       C  0.95054292  0.11073794  0.08494376    -0.04000
C1028       C  0.95945836  0.14741189  0.07475719    -0.01200
C1029       C  0.96010291  0.17529793  0.10157232     0.03800
C1030       C  0.95081407  0.16738788  0.13838831    -0.04000
C1031       C  0.93693566  0.13245725  0.14752278    -0.01100
C1032       C  0.93668738  0.10421980  0.12096157     0.03800
C1033       C  0.96987676  0.15675615  0.03729550     0.38500
C1034       C  0.92480441  0.12507361  0.18486836     0.38500
C1035       C  0.92230109  0.06846361  0.13099238     0.36900
C1036       C  0.97174955  0.21210155  0.09163158     0.36900
N1037       N  0.91073266  0.03997425  0.13902297    -0.37900
N1038       N  0.98100139  0.24144190  0.08372215    -0.37900
N1039       N  0.91503893  0.11929092  0.21466187    -0.37400
N1040       N  0.97814176  0.16446216  0.00747102    -0.37400
loop_ 
_geom_bond_atom_site_label_1 
_geom_bond_atom_site_label_2 
_geom_bond_distance 
_geom_bond_site_symmetry_2 
_ccdc_geom_bond_type 
O1           C17   1.271       .  A
O1           Zn7   1.979   1_545  S
C2           O18   1.271   1_455  A
C2           O15   1.276       .  A
C2          C985   1.495       .  S
O3           C16   1.278       .  A
O3          Cd10   2.106       .  S
O4           C22   1.274       .  A
O4          Cd13   2.060   1_554  S
O5           C19   1.277       .  A
O5           Cd9   2.072   1_455  S
O6           C17   1.275       .  A
O6           Cd9   2.087       .  S
Zn7          O18   1.995       .  S
Zn7          O20   1.989   1_556  S
Zn7          O12   1.909   1_565  S
O8           C19   1.277       .  A
O8          Cd13   2.084   1_545  S
Cd9          O11   2.072   1_556  S
Cd9          O12   2.002       .  S
Cd10         O14   2.096   1_565  S
Cd10         O23   2.087   1_655  S
Cd10         O12   2.010   1_564  S
O11          C21   1.275       .  A
O12         Cd13   2.010   1_645  S
Cd13         O15   2.092       .  S
O14          C21   1.280       .  A
C16          O20   1.270       .  A
C16         C957   1.481       .  S
C17        C1016   1.481       .  S
C19         C974   1.491       .  S
C21        C1027   1.507       .  S
C22          O23   1.278       .  A
C22         C999   1.495       .  S
O24          C40   1.271       .  A
O24         Zn30   1.985       .  S
C25          O41   1.272       .  A
C25          O38   1.279       .  A
C25         C887   1.492       .  S
O26          C39   1.276       .  A
O26         Cd33   2.101       .  S
O27          C45   1.278       .  A
O27         Cd36   2.094   1_655  S
O28          C42   1.278       .  A
O28         Cd32   2.090       .  S
O29          C40   1.279       .  A
O29         Cd32   2.112       .  S
Zn30         O41   1.994       .  S
Zn30         O43   2.000   1_455  S
Zn30         O35   1.923       .  S
O31          C42   1.277       .  A
O31         Cd36   2.091       .  S
Cd32         O34   2.088   1_455  S
Cd32         O35   2.017       .  S
Cd33         O37   2.081       .  S
Cd33         O46   2.062       .  S
Cd33         O35   2.009   1_655  S
O34          C44   1.278       .  A
O35         Cd36   2.026       .  S
Cd36         O38   2.112       .  S
O37          C44   1.277       .  A
C39          O43   1.271       .  A
C39        C1030   1.484       .  S
C40         C918   1.488       .  S
C42         C929   1.491       .  S
C44         C904   1.503       .  S
C45          O46   1.275       .  A
C45         C946   1.494       .  S
O47          C63   1.272       .  A
O47         Zn53   2.008       .  S
C48          O64   1.272       .  A
C48          O61   1.280       .  A
C48         C862   1.489       .  S
O49          C62   1.277       .  A
O49         Cd56   2.094       .  S
O50          C68   1.280       .  A
O50         Cd59   2.101       .  S
O51          C65   1.275       .  A
O51         Cd55   2.062       .  S
O52          C63   1.275       .  A
O52         Cd55   2.085       .  S
Zn53         O64   2.002       .  S
Zn53         O66   1.999       .  S
Zn53         O58   1.927       .  S
O54          C65   1.280       .  A
O54         Cd59   2.104       .  S
Cd55         O57   2.074       .  S
Cd55         O58   2.010       .  S
Cd56         O60   2.083       .  S
Cd56         O69   2.080       .  S
Cd56         O58   2.011       .  S
O57          C67   1.275       .  A
O58         Cd59   2.017       .  S
Cd59         O61   2.118       .  S
O60          C67   1.277       .  A
C62          O66   1.272       .  A
C62         C820   1.487       .  S
C63         C873   1.480       .  S
C65         C831   1.498       .  S
C67         C943   1.493       .  S
C68          O69   1.276       .  A
C68         C848   1.516       .  S
O70          C86   1.273       .  A
O70         Zn76   2.012       .  S
C71          O87   1.274   1_565  A
C71          O84   1.278       .  A
C71         C789   1.486       .  S
O72          C85   1.274       .  A
O72         Cd79   2.080       .  S
O73          C91   1.276       .  A
O73         Cd82   2.083       .  S
O74          C88   1.275       .  A
O74         Cd78   2.074   1_565  S
O75          C86   1.274       .  A
O75         Cd78   2.084       .  S
Zn76         O87   2.002       .  S
Zn76         O89   2.010       .  S
Zn76         O81   1.919       .  S
O77          C88   1.276       .  A
O77         Cd82   2.071       .  S
Cd78         O80   2.054       .  S
Cd78         O81   2.005       .  S
Cd79         O83   2.070       .  S
Cd79         O92   2.060   1_545  S
Cd79         O81   2.008       .  S
O80          C90   1.274       .  A
O81         Cd82   2.013   1_545  S
Cd82         O84   2.093       .  S
O83          C90   1.274       .  A
C85          O89   1.272       .  A
C85         C775   1.479       .  S
C86         C876   1.480       .  S
C88         C761   1.488       .  S
C90        C1013   1.483       .  S
C91          O92   1.274       .  A
C91         C803   1.494       .  S
O93         C109   1.271   1_545  A
O93         Zn99   1.987       .  S
C94         O110   1.272       .  A
C94         O107   1.277       .  A
C94         C890   1.489       .  S
O95         C108   1.276       .  A
O95        Cd102   2.091       .  S
O96         C114   1.277       .  A
O96        Cd105   2.081       .  S
O97         C111   1.278       .  A
O97        Cd101   2.089       .  S
O98         C109   1.277       .  A
O98        Cd101   2.098       .  S
Zn99        O110   2.004       .  S
Zn99        O112   1.999       .  S
Zn99        O104   1.920   1_545  S
O100        C111   1.277       .  A
O100       Cd105   2.076   1_565  S
Cd101       O103   2.094       .  S
Cd101       O104   2.021       .  S
Cd102       O106   2.071   1_545  S
Cd102       O115   2.076       .  S
Cd102       O104   2.004   1_545  S
O103        C113   1.277       .  A
O104       Cd105   2.007   1_565  S
Cd105       O107   2.104       .  S
O106        C113   1.275       .  A
C108        O112   1.272       .  A
C108        C719   1.478       .  S
C109       C1002   1.485       .  S
C111        C736   1.487       .  S
C113        C750   1.512       .  S
C114        O115   1.276       .  A
C114        C705   1.502       .  S
O116        C132   1.272       .  A
O116       Zn122   1.987       .  S
C117        O133   1.271       .  A
C117        O130   1.276       .  A
C117        C677   1.480       .  S
O118        C131   1.274       .  A
O118       Cd125   2.084       .  S
O119        C137   1.276       .  A
O119       Cd128   2.073   1_655  S
O120        C134   1.280       .  A
O120       Cd124   2.108       .  S
O121        C132   1.282       .  A
O121       Cd124   2.118       .  S
Zn122       O133   1.996       .  S
Zn122       O135   2.003       .  S
Zn122       O127   1.914       .  S
O123        C134   1.276       .  A
O123       Cd128   2.072       .  S
Cd124       O126   2.095   1_455  S
Cd124       O127   2.019       .  S
Cd125       O129   2.064       .  S
Cd125       O138   2.049       .  S
Cd125       O127   2.008   1_655  S
O126        C136   1.279       .  A
O127       Cd128   2.009       .  S
Cd128       O130   2.099       .  S
O129        C136   1.274       .  A
C131        O135   1.272   1_655  A
C131        C694   1.487       .  S
C132        C652   1.495       .  S
C134        C932   1.495       .  S
C136        C834   1.500       .  S
C137        O138   1.272       .  A
C137        C663   1.485       .  S
O139        C155   1.271       .  A
O139       Zn145   1.987       .  S
C140        O156   1.274       .  A
C140        O153   1.275       .  A
C140        C624   1.482       .  S
O141        C154   1.277       .  A
O141       Cd148   2.099       .  S
O142        C160   1.275       .  A
O142       Cd151   2.066       .  S
O143        C157   1.279       .  A
O143       Cd147   2.092       .  S
O144        C155   1.278       .  A
O144       Cd147   2.099       .  S
Zn145       O156   2.016       .  S
Zn145       O158   2.013       .  S
Zn145       O150   1.927       .  S
O146        C157   1.275       .  A
O146       Cd151   2.075       .  S
Cd147       O149   2.088       .  S
Cd147       O150   2.012       .  S
Cd148       O152   2.090       .  S
Cd148       O161   2.078       .  S
Cd148       O150   2.009       .  S
O149        C159   1.277       .  A
O150       Cd151   2.010       .  S
Cd151       O153   2.091       .  S
O152        C159   1.278       .  A
C154        O158   1.273       .  A
C154        C596   1.486       .  S
C155        C635   1.488       .  S
C157        C607   1.496       .  S
C159        C859   1.517       .  S
C160        O161   1.277       .  A
C160        C778   1.510       .  S
O162        C178   1.271       .  A
O162       Zn168   1.997       .  S
C163        O179   1.272       .  A
C163        O176   1.276       .  A
C163        C806   1.494       .  S
O164        C177   1.275       .  A
O164       Cd171   2.083       .  S
O165        C183   1.275       .  A
O165       Cd174   2.074   1_554  S
O166        C180   1.274       .  A
O166       Cd170   2.064   1_556  S
O167        C178   1.276       .  A
O167       Cd170   2.087   1_556  S
Zn168       O179   1.993       .  S
Zn168       O181   2.019   1_556  S
Zn168       O173   1.915   1_556  S
O169        C180   1.275       .  A
O169       Cd174   2.075       .  S
Cd170       O172   2.077       .  S
Cd170       O173   2.003       .  S
Cd171       O175   2.064       .  S
Cd171       O184   2.071       .  S
Cd171       O173   1.999       .  S
O172        C182   1.276       .  A
O173       Cd174   2.012   1_554  S
Cd174       O176   2.090       .  S
O175        C182   1.275       .  A
C177        O181   1.274       .  A
C177        C960   1.481       .  S
C178        C579   1.478       .  S
C180        C537   1.476       .  S
C182        C565   1.491       .  S
C183        O184   1.276       .  A
C183        C551   1.494       .  S
O185        C201   1.272       .  A
O185       Zn191   2.000       .  S
C186        O202   1.271       .  A
C186        O199   1.275       .  A
C186        C509   1.479       .  S
O187        C200   1.276       .  A
O187       Cd194   2.097       .  S
O188        C206   1.276       .  A
O188       Cd197   2.073   1_554  S
O189        C203   1.278       .  A
O189       Cd193   2.090       .  S
O190        C201   1.276       .  A
O190       Cd193   2.095       .  S
Zn191       O202   1.998       .  S
Zn191       O204   1.988       .  S
Zn191       O196   1.920       .  S
O192        C203   1.276       .  A
O192       Cd197   2.069       .  S
Cd193       O195   2.081   1_556  S
Cd193       O196   2.016       .  S
Cd194       O198   2.074       .  S
Cd194       O207   2.088       .  S
Cd194       O196   2.016   1_554  S
O195        C205   1.277       .  A
O196       Cd197   2.006       .  S
Cd197       O199   2.087       .  S
O198        C205   1.275       .  A
C200        O204   1.271   1_554  A
C200        C523   1.494       .  S
C201        C621   1.480       .  S
C203        C971   1.490       .  S
C205        C722   1.511       .  S
C206        O207   1.278       .  A
C206        C915   1.497       .  S
O208        C224   1.272       .  A
O208       Zn214   2.006       .  S
C209        O225   1.273       .  A
C209        O222   1.277       .  A
C209        C901   1.488       .  S
O210        C223   1.274       .  A
O210       Cd217   2.077       .  S
O211        C229   1.276       .  A
O211       Cd220   2.081       .  S
O212        C226   1.279       .  A
O212       Cd216   2.093       .  S
O213        C224   1.279       .  A
O213       Cd216   2.112       .  S
Zn214       O225   2.010       .  S
Zn214       O227   1.989       .  S
Zn214       O219   1.927       .  S
O215        C226   1.277       .  A
O215       Cd220   2.073       .  S
Cd216       O218   2.094       .  S
Cd216       O219   2.015       .  S
Cd217       O221   2.078       .  S
Cd217       O230   2.070       .  S
Cd217       O219   2.013       .  S
O218        C228   1.278       .  A
O219       Cd220   2.013       .  S
Cd220       O222   2.098       .  S
O221        C228   1.274       .  A
C223        O227   1.271       .  A
C223        C666   1.483       .  S
C224        C845   1.488       .  S
C226        C484   1.497       .  S
C228        C495   1.518       .  S
C229        O230   1.276       .  A
C229        C568   1.491       .  S
O231        C247   1.272       .  A
O231       Zn237   1.993       .  S
C232        O248   1.271   1_545  A
C232        O245   1.277       .  A
C232        C708   1.484       .  S
O233        C246   1.276       .  A
O233       Cd240   2.091       .  S
O234        C252   1.277       .  A
O234       Cd243   2.081       .  S
O235        C249   1.277       .  A
O235       Cd239   2.090   1_545  S
O236        C247   1.277       .  A
O236       Cd239   2.090       .  S
Zn237       O248   1.996       .  S
Zn237       O250   2.006       .  S
Zn237       O242   1.915       .  S
O238        C249   1.275       .  A
O238       Cd243   2.070       .  S
Cd239       O241   2.065       .  S
Cd239       O242   2.009       .  S
Cd240       O244   2.080       .  S
Cd240       O253   2.063   1_565  S
Cd240       O242   2.007       .  S
O241        C251   1.274       .  A
O242       Cd243   2.007   1_565  S
Cd243       O245   2.098       .  S
O244        C251   1.277       .  A
C246        O250   1.273       .  A
C246        C453   1.484       .  S
C247        C467   1.485       .  S
C249        C610   1.501       .  S
C251        C792   1.497       .  S
C252        O253   1.274       .  A
C252        C817   1.502       .  S
O254        C270   1.271       .  A
O254       Zn260   1.992   1_655  S
C255        O271   1.271       .  A
C255        O268   1.277       .  A
C255        C425   1.483       .  S
O256        C269   1.276       .  A
O256       Cd263   2.090       .  S
O257        C275   1.277       .  A
O257       Cd266   2.081       .  S
O258        C272   1.277       .  A
O258       Cd262   2.073       .  S
O259        C270   1.275       .  A
O259       Cd262   2.090       .  S
Zn260       O271   2.003       .  S
Zn260       O273   1.993       .  S
Zn260       O265   1.918   1_455  S
O261        C272   1.276       .  A
O261       Cd266   2.077   1_655  S
Cd262       O264   2.078       .  S
Cd262       O265   2.013       .  S
Cd263       O267   2.074   1_455  S
Cd263       O276   2.070       .  S
Cd263       O265   2.009   1_455  S
O264        C274   1.275       .  A
O265       Cd266   2.013   1_655  S
Cd266       O268   2.100       .  S
O267        C274   1.275       .  A
C269        O273   1.272       .  A
C269        C439   1.488       .  S
C270        C691   1.481       .  S
C272        C764   1.487       .  S
C274        C582   1.513       .  S
C275        O276   1.276       .  A
C275        C988   1.491       .  S
O277        C293   1.271       .  A
O277       Zn283   2.003       .  S
C278        O294   1.271       .  A
C278        O291   1.279       .  A
C278        C411   1.497       .  S
O279        C292   1.277       .  A
O279       Cd286   2.100       .  S
O280        C298   1.278       .  A
O280       Cd289   2.095       .  S
O281        C295   1.277       .  A
O281       Cd285   2.081       .  S
O282        C293   1.276       .  A
O282       Cd285   2.101       .  S
Zn283       O294   1.986       .  S
Zn283       O296   1.987       .  S
Zn283       O288   1.918       .  S
O284        C295   1.278       .  A
O284       Cd289   2.084       .  S
Cd285       O287   2.071       .  S
Cd285       O288   2.010       .  S
Cd286       O290   2.081       .  S
Cd286       O299   2.078       .  S
Cd286       O288   2.010       .  S
O287        C297   1.276       .  A
O288       Cd289   2.016       .  S
Cd289       O291   2.107       .  S
O290        C297   1.277       .  A
C292        O296   1.270       .  A
C292        C456   1.481       .  S
C293        C747   1.484       .  S
C295        C400   1.497       .  S
C297        C554   1.494       .  S
C298        O299   1.277       .  A
C298        C498   1.517       .  S
O300        C316   1.275       .  A
O300       Zn306   2.023       .  S
C301        O317   1.275       .  A
C301        O314   1.274       .  A
C301        C680   1.479       .  S
O302        C315   1.276       .  A
O302       Cd309   2.090       .  S
O303        C321   1.274       .  A
O303       Cd312   2.062       .  S
O304        C318   1.276       .  A
O304       Cd308   2.079       .  S
O305        C316   1.278       .  A
O305       Cd308   2.101       .  S
Zn306       O317   2.024       .  S
Zn306       O319   2.010       .  S
Zn306       O311   1.927       .  S
O307        C318   1.274       .  A
O307       Cd312   2.074       .  S
Cd308       O310   2.073       .  S
Cd308       O311   2.013       .  S
Cd309       O313   2.068       .  S
Cd309       O322   2.084       .  S
Cd309       O311   2.017       .  S
O310        C320   1.275       .  A
O311       Cd312   2.005       .  S
Cd312       O314   2.075       .  S
O313        C320   1.275       .  A
C315        O319   1.274       .  A
C315        C383   1.490       .  S
C316        C428   1.486       .  S
C318        C733   1.487       .  S
C320        C470   1.499       .  S
C321        O322   1.276       .  A
C321        C414   1.492       .  S
O323        C339   1.273       .  A
O323       Zn329   2.000       .  S
C324        O340   1.273       .  A
C324        O337   1.275       .  A
C324        C369   1.480       .  S
O325        C338   1.277       .  A
O325       Cd332   2.091       .  S
O326        C344   1.276       .  A
O326       Cd335   2.080       .  S
O327        C341   1.276       .  A
O327       Cd331   2.081       .  S
O328        C339   1.276       .  A
O328       Cd331   2.089       .  S
Zn329       O340   2.012       .  S
Zn329       O342   2.001       .  S
Zn329       O334   1.916       .  S
O330        C341   1.274       .  A
O330       Cd335   2.062       .  S
Cd331       O333   2.063       .  S
Cd331       O334   2.011       .  S
Cd332       O336   2.091       .  S
Cd332       O345   2.066       .  S
Cd332       O334   2.011       .  S
O333        C343   1.274       .  A
O334       Cd335   2.002       .  S
Cd335       O337   2.087       .  S
O336        C343   1.277       .  A
C338        O342   1.273       .  A
C338        C512   1.485       .  S
C339        C638   1.486       .  S
C341        C386   1.505       .  S
C343        C649   1.497       .  S
C344        O345   1.275       .  A
C344        C442   1.491       .  S
O346        C362   1.272       .  A
O346       Zn352   2.009       .  S
C347        O363   1.273   1_554  A
C347        O360   1.278       .  A
C347        C526   1.487       .  S
O348        C361   1.276       .  A
O348       Cd355   2.094       .  S
O349        C367   1.277       .  A
O349       Cd358   2.083       .  S
O350        C364   1.276       .  A
O350       Cd354   2.077   1_554  S
O351        C362   1.277       .  A
O351       Cd354   2.097       .  S
Zn352       O363   1.993       .  S
Zn352       O365   2.001       .  S
Zn352       O357   1.920       .  S
O353        C364   1.277       .  A
O353       Cd358   2.089       .  S
Cd354       O356   2.070       .  S
Cd354       O357   2.012       .  S
Cd355       O359   2.062       .  S
Cd355       O368   2.073   1_556  S
Cd355       O357   2.008       .  S
O356        C366   1.275       .  A
O357       Cd358   2.014   1_556  S
Cd358       O360   2.095       .  S
O359        C366   1.275       .  A
C361        O365   1.272       .  A
C361        C372   1.479       .  S
C362        C593   1.488       .  S
C364        C481   1.498       .  S
C366        C540   1.475       .  S
C367        O368   1.275       .  A
C367        C397   1.495       .  S
C369        C370   1.411       .  A
C369        C374   1.411       .  A
C370        C371   1.411       .  A
C370        C375   1.450       .  S
C371        C372   1.410       .  A
C371        C378   1.450       .  S
C372        C373   1.411       .  A
C373        C374   1.412       .  A
C373        C376   1.450       .  S
C374        C377   1.449       .  S
C375        N382   1.157       .  T
C376        N381   1.157       .  T
C377        N379   1.157       .  T
C378        N380   1.157       .  T
C383        C384   1.411       .  A
C383        C388   1.410       .  A
C384        C385   1.419       .  A
C384        C389   1.450       .  S
C385        C386   1.423       .  A
C385        C392   1.451       .  S
C386        C387   1.424       .  A
C387        C388   1.407       .  A
C387        C390   1.454       .  S
C388        C391   1.451       .  S
C389        N396   1.157       .  T
C390        N395   1.158       .  T
C391        N393   1.155       .  T
C392        N394   1.157       .  T
C397        C398   1.415       .  A
C397        C402   1.416       .  A
C398        C399   1.416       .  A
C398        C403   1.451       .  S
C399        C400   1.416       .  A
C399        C406   1.451       .  S
C400        C401   1.417       .  A
C401        C402   1.412       .  A
C401        C404   1.452       .  S
C402        C405   1.454       .  S
C403        N410   1.157       .  T
C404        N409   1.157       .  T
C405        N407   1.158       .  T
C406        N408   1.157       .  T
C411        C412   1.416       .  A
C411        C416   1.419       .  A
C412        C413   1.419       .  A
C412        C417   1.450       .  S
C413        C414   1.414       .  A
C413        C420   1.450       .  S
C414        C415   1.415       .  A
C415        C416   1.407       .  A
C415        C418   1.455       .  S
C416        C419   1.453       .  S
C417        N424   1.157       .  T
C418        N423   1.157       .  T
C419        N421   1.157       .  T
C420        N422   1.157       .  T
C425        C426   1.412       .  A
C425        C430   1.411       .  A
C426        C427   1.414       .  A
C426        C431   1.449       .  S
C427        C428   1.411       .  A
C427        C434   1.450       .  S
C428        C429   1.411       .  A
C429        C430   1.413       .  A
C429        C432   1.448       .  S
C430        C433   1.451       .  S
C431        N438   1.157       .  T
C432        N437   1.157       .  T
C433        N435   1.157       .  T
C434        N436   1.157       .  T
C439        C440   1.414       .  A
C439        C444   1.414       .  A
C440        C441   1.416       .  A
C440        C445   1.450       .  S
C441        C442   1.415       .  A
C441        C448   1.450       .  S
C442        C443   1.417       .  A
C443        C444   1.407       .  A
C443        C446   1.454       .  S
C444        C447   1.454       .  S
C445        N452   1.157       .  T
C446        N451   1.157       .  T
C447        N449   1.158       .  T
C448        N450   1.157       .  T
C453        C454   1.413       .  A
C453        C458   1.413       .  A
C454        C455   1.415       .  A
C454        C459   1.450       .  S
C455        C456   1.412       .  A
C455        C462   1.450       .  S
C456        C457   1.411       .  A
C457        C458   1.409       .  A
C457        C460   1.451       .  S
C458        C461   1.452       .  S
C459        N466   1.157       .  T
C460        N465   1.157       .  T
C461        N463   1.157       .  T
C462        N464   1.157       .  T
C467        C468   1.411       .  A
C467        C472   1.411       .  A
C468        C469   1.415       .  A
C468        C473   1.451       .  S
C469        C470   1.420       .  A
C469        C476   1.451       .  S
C470        C471   1.422       .  A
C471        C472   1.409       .  A
C471        C474   1.453       .  S
C472        C475   1.454       .  S
C473        N480   1.157       .  T
C474        N479   1.158       .  T
C475        N477   1.158       .  T
C476        N478   1.158       .  T
C481        C482   1.418       .  A
C481        C486   1.415       .  A
C482        C483   1.413       .  A
C482        C487   1.452       .  S
C483        C484   1.417       .  A
C483        C490   1.454       .  S
C484        C485   1.415       .  A
C485        C486   1.417       .  A
C485        C488   1.450       .  S
C486        C489   1.450       .  S
C487        N494   1.157       .  T
C488        N493   1.157       .  T
C489        N491   1.157       .  T
C490        N492   1.158       .  T
C495        C496   1.419       .  A
C495        C500   1.423       .  A
C496        C497   1.418       .  A
C496        C501   1.453       .  S
C497        C498   1.423       .  A
C497        C504   1.451       .  S
C498        C499   1.421       .  A
C499        C500   1.417       .  A
C499        C502   1.454       .  S
C500        C503   1.452       .  S
C501        N508   1.157       .  T
C502        N507   1.157       .  T
C503        N505   1.158       .  T
C504        N506   1.158       .  T
C509        C510   1.410       .  A
C509        C514   1.411       .  A
C510        C511   1.408       .  A
C510        C515   1.452       .  S
C511        C512   1.413       .  A
C511        C518   1.450       .  S
C512        C513   1.414       .  A
C513        C514   1.414       .  A
C513        C516   1.450       .  S
C514        C517   1.450       .  S
C515        N522   1.157       .  T
C516        N521   1.157       .  T
C517        N519   1.157       .  T
C518        N520   1.157       .  T
C523        C524   1.417       .  A
C523        C528   1.417       .  A
C524        C525   1.417       .  A
C524        C529   1.450       .  S
C525        C526   1.413       .  A
C525        C532   1.450       .  S
C526        C527   1.413       .  A
C527        C528   1.406       .  A
C527        C530   1.454   1_554  S
C528        C531   1.453   1_554  S
C529        N536   1.157       .  T
C530        N535   1.158       .  T
C531        N533   1.157       .  T
C532        N534   1.157       .  T
C537        C538   1.411   1_556  A
C537        C542   1.411       .  A
C538        C539   1.405       .  A
C538        C543   1.454       .  S
C539        C540   1.413   1_554  A
C539        C546   1.454       .  S
C540        C541   1.410       .  A
C541        C542   1.414       .  A
C541        C544   1.449       .  S
C542        C545   1.449       .  S
C543        N550   1.157       .  T
C544        N549   1.157       .  T
C545        N547   1.157       .  T
C546        N548   1.158       .  T
C551        C552   1.418       .  A
C551        C556   1.415       .  A
C552        C553   1.411       .  A
C552        C557   1.452       .  S
C553        C554   1.417       .  A
C553        C560   1.454       .  S
C554        C555   1.415       .  A
C555        C556   1.414       .  A
C555        C558   1.451       .  S
C556        C559   1.451       .  S
C557        N564   1.158       .  T
C558        N563   1.158       .  T
C559        N561   1.157       .  T
C560        N562   1.157       .  T
C565        C566   1.417       .  A
C565        C570   1.415       .  A
C566        C567   1.408       .  A
C566        C571   1.454       .  S
C567        C568   1.416       .  A
C567        C574   1.452       .  S
C568        C569   1.414       .  A
C569        C570   1.416       .  A
C569        C572   1.450       .  S
C570        C573   1.451       .  S
C571        N578   1.158       .  T
C572        N577   1.157       .  T
C573        N575   1.157       .  T
C574        N576   1.157       .  T
C579        C580   1.404       .  A
C579        C584   1.407       .  A
C580        C581   1.412       .  A
C580        C585   1.452       .  S
C581        C582   1.426       .  A
C581        C588   1.451       .  S
C582        C583   1.426       .  A
C583        C584   1.413       .  A
C583        C586   1.451       .  S
C584        C587   1.453       .  S
C585        N592   1.157       .  T
C586        N591   1.158       .  T
C587        N589   1.157       .  T
C588        N590   1.157       .  T
C593        C594   1.414       .  A
C593        C598   1.412       .  A
C594        C595   1.416       .  A
C594        C599   1.450       .  S
C595        C596   1.411       .  A
C595        C602   1.449       .  S
C596        C597   1.413       .  A
C597        C598   1.412       .  A
C597        C600   1.451       .  S
C598        C601   1.450       .  S
C599        N606   1.157       .  T
C600        N605   1.157       .  T
C601        N603   1.157       .  T
C602        N604   1.157       .  T
C607        C608   1.413       .  A
C607        C612   1.416       .  A
C608        C609   1.411       .  A
C608        C613   1.452       .  S
C609        C610   1.420       .  A
C609        C616   1.454       .  S
C610        C611   1.417       .  A
C611        C612   1.418       .  A
C611        C614   1.450       .  S
C612        C615   1.451       .  S
C613        N620   1.157       .  T
C614        N619   1.157       .  T
C615        N617   1.157       .  T
C616        N618   1.158       .  T
C621        C622   1.411       .  A
C621        C626   1.410       .  A
C622        C623   1.412       .  A
C622        C627   1.451       .  S
C623        C624   1.410       .  A
C623        C630   1.450       .  S
C624        C625   1.412       .  A
C625        C626   1.413       .  A
C625        C628   1.450       .  S
C626        C629   1.450       .  S
C627        N634   1.157       .  T
C628        N633   1.157       .  T
C629        N631   1.157       .  T
C630        N632   1.157       .  T
C635        C636   1.415       .  A
C635        C640   1.415       .  A
C636        C637   1.407       .  A
C636        C641   1.452       .  S
C637        C638   1.413       .  A
C637        C644   1.454       .  S
C638        C639   1.413       .  A
C639        C640   1.417       .  A
C639        C642   1.450       .  S
C640        C643   1.450       .  S
C641        N648   1.157       .  T
C642        N647   1.157       .  T
C643        N645   1.157       .  T
C644        N646   1.157       .  T
C649        C650   1.416       .  A
C649        C654   1.418       .  A
C650        C651   1.419       .  A
C650        C655   1.450       .  S
C651        C652   1.414       .  A
C651        C658   1.449       .  S
C652        C653   1.416       .  A
C653        C654   1.409       .  A
C653        C656   1.454       .  S
C654        C657   1.455       .  S
C655        N662   1.157       .  T
C656        N661   1.157       .  T
C657        N659   1.158       .  T
C658        N660   1.157       .  T
C663        C664   1.414       .  A
C663        C668   1.417       .  A
C664        C665   1.412       .  A
C664        C669   1.451       .  S
C665        C666   1.413       .  A
C665        C672   1.450       .  S
C666        C667   1.413       .  A
C667        C668   1.406       .  A
C667        C670   1.454       .  S
C668        C671   1.454       .  S
C669        N676   1.157       .  T
C670        N675   1.157       .  T
C671        N673   1.158       .  T
C672        N674   1.157       .  T
C677        C678   1.411       .  A
C677        C682   1.411       .  A
C678        C679   1.412       .  A
C678        C683   1.449       .  S
C679        C680   1.410       .  A
C679        C686   1.450       .  S
C680        C681   1.411       .  A
C681        C682   1.411       .  A
C681        C684   1.451       .  S
C682        C685   1.450       .  S
C683        N690   1.157       .  T
C684        N689   1.157       .  T
C685        N687   1.157       .  T
C686        N688   1.157       .  T
C691        C692   1.409       .  A
C691        C696   1.412       .  A
C692        C693   1.406       .  A
C692        C697   1.452       .  S
C693        C694   1.414       .  A
C693        C700   1.451       .  S
C694        C695   1.414       .  A
C695        C696   1.416       .  A
C695        C698   1.449       .  S
C696        C699   1.450       .  S
C697        N704   1.157       .  T
C698        N703   1.157       .  T
C699        N701   1.157       .  T
C700        N702   1.157       .  T
C705        C706   1.422       .  A
C705        C710   1.421       .  A
C706        C707   1.412       .  A
C706        C711   1.452       .  S
C707        C708   1.410       .  A
C707        C714   1.453       .  S
C708        C709   1.409       .  A
C709        C710   1.415       .  A
C709        C712   1.451       .  S
C710        C713   1.451       .  S
C711        N718   1.158       .  T
C712        N717   1.157       .  T
C713        N715   1.158       .  T
C714        N716   1.158       .  T
C719        C720   1.406       .  A
C719        C724   1.407       .  A
C720        C721   1.411       .  A
C720        C725   1.452       .  S
C721        C722   1.425       .  A
C721        C728   1.451       .  S
C722        C723   1.424       .  A
C723        C724   1.414       .  A
C723        C726   1.451       .  S
C724        C727   1.451       .  S
C725        N732   1.157       .  T
C726        N731   1.158       .  T
C727        N729   1.157       .  T
C728        N730   1.158       .  T
C733        C734   1.414       .  A
C733        C738   1.415       .  A
C734        C735   1.418       .  A
C734        C739   1.450       .  S
C735        C736   1.413       .  A
C735        C742   1.449       .  S
C736        C737   1.413       .  A
C737        C738   1.408       .  A
C737        C740   1.453       .  S
C738        C741   1.454       .  S
C739        N746   1.157       .  T
C740        N745   1.157       .  T
C741        N743   1.158       .  T
C742        N744   1.157       .  T
C747        C748   1.407       .  A
C747        C752   1.408       .  A
C748        C749   1.414       .  A
C748        C753   1.451       .  S
C749        C750   1.425       .  A
C749        C756   1.452       .  S
C750        C751   1.425       .  A
C751        C752   1.416       .  A
C751        C754   1.450       .  S
C752        C755   1.452       .  S
C753        N760   1.157       .  T
C754        N759   1.158       .  T
C755        N757   1.157       .  T
C756        N758   1.158       .  T
C761        C762   1.413       .  A
C761        C766   1.416       .  A
C762        C763   1.416       .  A
C762        C767   1.450       .  S
C763        C764   1.414       .  A
C763        C770   1.450       .  S
C764        C765   1.413       .  A
C765        C766   1.408       .  A
C765        C768   1.455       .  S
C766        C769   1.453       .  S
C767        N774   1.157       .  T
C768        N773   1.157       .  T
C769        N771   1.157       .  T
C770        N772   1.157       .  T
C775        C776   1.405       .  A
C775        C780   1.405       .  A
C776        C777   1.411       .  A
C776        C781   1.450       .  S
C777        C778   1.426       .  A
C777        C784   1.452       .  S
C778        C779   1.427       .  A
C779        C780   1.413       .  A
C779        C782   1.452       .  S
C780        C783   1.451       .  S
C781        N788   1.156       .  T
C782        N787   1.158       .  T
C783        N785   1.157       .  T
C784        N786   1.158       .  T
C789        C790   1.411       .  A
C789        C794   1.411       .  A
C790        C791   1.416       .  A
C790        C795   1.450       .  S
C791        C792   1.418       .  A
C791        C798   1.450       .  S
C792        C793   1.421       .  A
C793        C794   1.408       .  A
C793        C796   1.454       .  S
C794        C797   1.453       .  S
C795        N802   1.157       .  T
C796        N801   1.158   1_565  T
C797        N799   1.157   1_565  T
C798        N800   1.157       .  T
C803        C804   1.416       .  A
C803        C808   1.418       .  A
C804        C805   1.418       .  A
C804        C809   1.450       .  S
C805        C806   1.416       .  A
C805        C812   1.451       .  S
C806        C807   1.417       .  A
C807        C808   1.407       .  A
C807        C810   1.454       .  S
C808        C811   1.455       .  S
C809        N816   1.157       .  T
C810        N815   1.157       .  T
C811        N813   1.157       .  T
C812        N814   1.157       .  T
C817        C818   1.423       .  A
C817        C822   1.421       .  A
C818        C819   1.409       .  A
C818        C823   1.454       .  S
C819        C820   1.410       .  A
C819        C826   1.453       .  S
C820        C821   1.410       .  A
C821        C822   1.416       .  A
C821        C824   1.450       .  S
C822        C825   1.451       .  S
C823        N830   1.158       .  T
C824        N829   1.157       .  T
C825        N827   1.157       .  T
C826        N828   1.157       .  T
C831        C832   1.414       .  A
C831        C836   1.419       .  A
C832        C833   1.417       .  A
C832        C837   1.451       .  S
C833        C834   1.418       .  A
C833        C840   1.450       .  S
C834        C835   1.418       .  A
C835        C836   1.412       .  A
C835        C838   1.454       .  S
C836        C839   1.454       .  S
C837        N844   1.157       .  T
C838        N843   1.157       .  T
C839        N841   1.158       .  T
C840        N842   1.157       .  T
C845        C846   1.409       .  A
C845        C850   1.408       .  A
C846        C847   1.417       .  A
C846        C851   1.451       .  S
C847        C848   1.423       .  A
C847        C854   1.450       .  S
C848        C849   1.427       .  A
C849        C850   1.415       .  A
C849        C852   1.451       .  S
C850        C853   1.452       .  S
C851        N858   1.157       .  T
C852        N857   1.158       .  T
C853        N855   1.157       .  T
C854        N856   1.157       .  T
C859        C860   1.426       .  A
C859        C864   1.426       .  A
C860        C861   1.415       .  A
C860        C865   1.451       .  S
C861        C862   1.409       .  A
C861        C868   1.452       .  S
C862        C863   1.408       .  A
C863        C864   1.418       .  A
C863        C866   1.451       .  S
C864        C867   1.451       .  S
C865        N872   1.158       .  T
C866        N871   1.157       .  T
C867        N869   1.158       .  T
C868        N870   1.157       .  T
C873        C874   1.413       .  A
C873        C878   1.410       .  A
C874        C875   1.414       .  A
C874        C879   1.449       .  S
C875        C876   1.410       .  A
C875        C882   1.449       .  S
C876        C877   1.410       .  A
C877        C878   1.408       .  A
C877        C880   1.449       .  S
C878        C881   1.451       .  S
C879        N886   1.157       .  T
C880        N885   1.156       .  T
C881        N883   1.157       .  T
C882        N884   1.157       .  T
C887        C888   1.415       .  A
C887        C892   1.416       .  A
C888        C889   1.410       .  A
C888        C893   1.453       .  S
C889        C890   1.413       .  A
C889        C896   1.453       .  S
C890        C891   1.413       .  A
C891        C892   1.419       .  A
C891        C894   1.450       .  S
C892        C895   1.450       .  S
C893        N900   1.157       .  T
C894        N899   1.157       .  T
C895        N897   1.158       .  T
C896        N898   1.158       .  T
C901        C902   1.410       .  A
C901        C906   1.411       .  A
C902        C903   1.416       .  A
C902        C907   1.450       .  S
C903        C904   1.420       .  A
C903        C910   1.450       .  S
C904        C905   1.421       .  A
C905        C906   1.413       .  A
C905        C908   1.451       .  S
C906        C909   1.453       .  S
C907        N914   1.157       .  T
C908        N913   1.158       .  T
C909        N911   1.158       .  T
C910        N912   1.157       .  T
C915        C916   1.417       .  A
C915        C920   1.419       .  A
C916        C917   1.410       .  A
C916        C921   1.451       .  S
C917        C918   1.413       .  A
C917        C924   1.454       .  S
C918        C919   1.411       .  A
C919        C920   1.417       .  A
C919        C922   1.450       .  S
C920        C923   1.451       .  S
C921        N928   1.157       .  T
C922        N927   1.157       .  T
C923        N925   1.157       .  T
C924        N926   1.157       .  T
C929        C930   1.413       .  A
C929        C934   1.413       .  A
C930        C931   1.421       .  A
C930        C935   1.449       .  S
C931        C932   1.415       .  A
C931        C938   1.449       .  S
C932        C933   1.416       .  A
C933        C934   1.410       .  A
C933        C936   1.453   1_455  S
C934        C937   1.453   1_455  S
C935        N942   1.157       .  T
C936        N941   1.158       .  T
C937        N939   1.157       .  T
C938        N940   1.157       .  T
C943        C944   1.416       .  A
C943        C948   1.415       .  A
C944        C945   1.418       .  A
C944        C949   1.450       .  S
C945        C946   1.415       .  A
C945        C952   1.450       .  S
C946        C947   1.417       .  A
C947        C948   1.409       .  A
C947        C950   1.454       .  S
C948        C951   1.453       .  S
C949        N956   1.157       .  T
C950        N955   1.158       .  T
C951        N953   1.157       .  T
C952        N954   1.157       .  T
C957        C958   1.412       .  A
C957        C962   1.412       .  A
C958        C959   1.413       .  A
C958        C963   1.450       .  S
C959        C960   1.411       .  A
C959        C966   1.450       .  S
C960        C961   1.411       .  A
C961        C962   1.412       .  A
C961        C964   1.450       .  S
C962        C965   1.450       .  S
C963        N970   1.157       .  T
C964        N969   1.157       .  T
C965        N967   1.157       .  T
C966        N968   1.157       .  T
C971        C972   1.415       .  A
C971        C976   1.415       .  A
C972        C973   1.408       .  A
C972        C977   1.454   1_556  S
C973        C974   1.415       .  A
C973        C980   1.453   1_556  S
C974        C975   1.414       .  A
C975        C976   1.418       .  A
C975        C978   1.450       .  S
C976        C979   1.450       .  S
C977        N984   1.158       .  T
C978        N983   1.157       .  T
C979        N981   1.157       .  T
C980        N982   1.157       .  T
C985        C986   1.418       .  A
C985        C990   1.416       .  A
C986        C987   1.409       .  A
C986        C991   1.454   1_455  S
C987        C988   1.416       .  A
C987        C994   1.454   1_455  S
C988        C989   1.414       .  A
C989        C990   1.416       .  A
C989        C992   1.451       .  S
C990        C993   1.450       .  S
C991        N998   1.157       .  T
C992        N997   1.157       .  T
C993        N995   1.157       .  T
C994        N996   1.157       .  T
C999       C1000   1.420       .  A
C999       C1004   1.418       .  A
C1000      C1001   1.408       .  A
C1000      C1005   1.454       .  S
C1001      C1002   1.412       .  A
C1001      C1008   1.453       .  S
C1002      C1003   1.411       .  A
C1003      C1004   1.415       .  A
C1003      C1006   1.450       .  S
C1004      C1007   1.451       .  S
C1005      N1012   1.158   1_565  T
C1006      N1011   1.157       .  T
C1007      N1009   1.157       .  T
C1008      N1010   1.157   1_565  T
C1013      C1014   1.415       .  A
C1013      C1018   1.415       .  A
C1014      C1015   1.415       .  A
C1014      C1019   1.450       .  S
C1015      C1016   1.413       .  A
C1015      C1022   1.450       .  S
C1016      C1017   1.412       .  A
C1017      C1018   1.403       .  A
C1017      C1020   1.455   1_545  S
C1018      C1021   1.454   1_545  S
C1019      N1026   1.157       .  T
C1020      N1025   1.157       .  T
C1021      N1023   1.157       .  T
C1022      N1024   1.157       .  T
C1027      C1028   1.425       .  A
C1027      C1032   1.421       .  A
C1028      C1029   1.413       .  A
C1028      C1033   1.452       .  S
C1029      C1030   1.408       .  A
C1029      C1036   1.452       .  S
C1030      C1031   1.409       .  A
C1031      C1032   1.416       .  A
C1031      C1034   1.450       .  S
C1032      C1035   1.451       .  S
C1033      N1040   1.158       .  T
C1034      N1039   1.157       .  T
C1035      N1037   1.157       .  T
C1036      N1038   1.157       .  T
