geometry optimzed in LAMMPS
_audit_creation_date              2020-11-30 
_audit_creation_method            'lammps2cif' 
_symmetry_space_group_name_H-M    'P1' 
_symmetry_Int_Tables_number       1 
_symmetry_cell_setting            triclinic 
loop_ 
_symmetry_equiv_pos_as_xyz 
  x,y,z 
_cell_length_a                    28.43617463 
_cell_length_b                    28.437428680557428 
_cell_length_c                    53.009568412818815 
_cell_angle_alpha                 90.00060815581635 
_cell_angle_beta                  89.96659480591656 
_cell_angle_gamma                 89.96531556951084 
loop_ 
_atom_site_label 
_atom_site_type_symbol 
_atom_site_fract_x 
_atom_site_fract_y 
_atom_site_fract_z 
_atom_site_charge 
In1        In  0.41172468  0.32131522  0.00174026     1.36900
C2          C  0.00517881  0.31796719  0.00352376     0.76400
O3          O  0.43189557  0.31036565  0.96230706    -0.62100
O4          O  0.38784634  0.36980372  0.97037128    -0.53000
C5          C  0.36136661  0.24511300  0.00158139     0.69100
O6          O  0.34995400  0.27922893  0.98756648    -0.47800
C7          C  0.40289042  0.36427957  0.04497877     0.73800
O8          O  0.48083681  0.28086557  0.00334639    -0.59700
O9          O  0.40070607  0.38710275  0.02446982    -0.49800
O10         O  0.48181259  0.35537349  0.00324845    -0.56100
C11         C  0.41387989  0.34829854  0.95452719     0.83900
O12         O  0.39199694  0.25370460  0.01801279    -0.58000
O13         O  0.39793865  0.32061705  0.04282795    -0.61300
In14       In  0.14980885  0.32658071  0.00265280     1.36900
C15         C  0.05649374  0.31913493  0.00336932     0.76400
O16         O  0.16094212  0.32727026  0.04401451    -0.62100
O17         O  0.15468095  0.39337795  0.02554036    -0.53000
C18         C  0.19918781  0.24993767  0.00439547     0.69100
O19         O  0.17327760  0.26279255  0.02226597    -0.47800
C20         C  0.15331948  0.35079738  0.95463352     0.73800
O21         O  0.08250389  0.28326211  0.00405423    -0.59700
O22         O  0.17609347  0.37429908  0.97114417    -0.49800
O23         O  0.07810385  0.35749126  0.00212216    -0.56100
C24         C  0.15209599  0.37035628  0.04602522     0.83900
O25         O  0.20959578  0.28156751  0.98864050    -0.58000
O26         O  0.13535253  0.31294502  0.96257407    -0.61300
In27       In  0.40592497  0.11996867  0.99488918     1.36900
C28         C  0.99919117  0.12701237  0.99606762     0.76400
O29         O  0.42112772  0.13130340  0.03478842    -0.62100
O30         O  0.38093394  0.06979767  0.02549943    -0.53000
C31         C  0.35668919  0.19674726  0.99407757     0.69100
O32         O  0.34646340  0.16471612  0.00961746    -0.47800
C33         C  0.40345137  0.07906251  0.95055033     0.73800
O34         O  0.47328805  0.16282917  0.99688104    -0.59700
O35         O  0.39580043  0.05534876  0.97049010    -0.49800
O36         O  0.47750906  0.08860643  0.99446519    -0.56100
C37         C  0.40366778  0.09291322  0.04219922     0.83900
O38         O  0.38198375  0.18424795  0.97591682    -0.58000
O39         O  0.40159610  0.12286065  0.95338148    -0.61300
In40       In  0.14398510  0.12541562  0.99845250     1.36900
C41         C  0.05048666  0.12819600  0.99704261     0.76400
O42         O  0.15134500  0.12692074  0.95717220    -0.62100
O43         O  0.15813542  0.06035601  0.97517436    -0.53000
C44         C  0.19485544  0.20137190  0.99722256     0.69100
O45         O  0.16355521  0.19228951  0.98127774    -0.47800
C46         C  0.14361903  0.09906033  0.04587112     0.73800
O47         O  0.07458818  0.16530608  0.99852315    -0.59700
O48         O  0.16671053  0.07575144  0.02946000    -0.49800
O49         O  0.07403771  0.09086855  0.99657526    -0.56100
C50         C  0.15175915  0.08300564  0.95481420     0.83900
O51         O  0.20695931  0.16759700  0.01129197    -0.58000
O52         O  0.12785551  0.13822034  0.03842076    -0.61300
C53         C  0.42628172  0.05885213  0.92727187     0.85300
C54         C  0.40498306  0.01440134  0.91663002    -0.54900
C55         C  0.43114753  0.49088473  0.89942884     0.08200
C56         C  0.47399257  0.02396389  0.88966474     0.19200
C57         C  0.47760115  0.04670831  0.93333987    -0.55700
C58         C  0.00431025  0.03089184  0.91355013     0.08300
C59         C  0.42910648  0.09230850  0.90498103    -0.55200
C60         C  0.45342763  0.07494084  0.88504103     0.08900
H61         H  0.37353449  0.00053446  0.92529278     0.13400
H62         H  0.49326287  0.00983651  0.87313674    -0.00900
H63         H  0.99132970  0.05349845  0.95195726     0.13700
H64         H  0.41263225  0.12678802  0.90473693     0.13500
C65         C  0.13271927  0.06108368  0.93114815     0.85300
C66         C  0.13370917  0.09310213  0.90825308    -0.54900
C67         C  0.11259618  0.07481549  0.88758113     0.08200
C68         C  0.09151559  0.02395574  0.89202896     0.19200
C69         C  0.08073092  0.04947216  0.93505849    -0.55700
C70         C  0.05748407  0.03178006  0.91451345     0.08300
C71         C  0.15532098  0.01567570  0.92261875    -0.55200
C72         C  0.13203513  0.99226184  0.90349455     0.08900
H73         H  0.14993258  0.12770895  0.90828048     0.13400
H74         H  0.07482272  0.00886008  0.87497298    -0.00900
H75         H  0.06396397  0.05815395  0.95270886     0.13700
H76         H  0.18439519  0.00203783  0.93344720     0.13500
C77         C  0.13603390  0.37058031  0.92981555     0.85300
C78         C  0.15841063  0.41535323  0.91984207    -0.54900
C79         C  0.13325262  0.43815445  0.90106773     0.08200
C80         C  0.09260708  0.40559304  0.89068939     0.19200
C81         C  0.08473207  0.38353864  0.93421791    -0.55700
C82         C  0.06014017  0.39913554  0.91374766     0.08300
C83         C  0.13548872  0.33692745  0.90746055    -0.55200
C84         C  0.11359843  0.35462571  0.88664045     0.08900
H85         H  0.18843427  0.42959722  0.92966363     0.13400
H86         H  0.07481844  0.41970044  0.87368883    -0.00900
H87         H  0.06973585  0.37831809  0.95269784     0.13700
H88         H  0.15138688  0.30220069  0.90794361     0.13500
C89         C  0.43192850  0.36936802  0.93031850     0.85300
C90         C  0.43156959  0.33654193  0.90780665    -0.54900
C91         C  0.45320080  0.35444294  0.88707418     0.08200
C92         C  0.47425197  0.40514948  0.89101311     0.19200
C93         C  0.48334195  0.38167590  0.93444536    -0.55700
C94         C  0.50724481  0.39846732  0.91391961     0.08300
C95         C  0.40989323  0.41479718  0.92115558    -0.55200
C96         C  0.43337385  0.43699992  0.90152405     0.08900
H97         H  0.41537875  0.30193824  0.90815433     0.13400
H98         H  0.49172074  0.41949237  0.87396333    -0.00900
H99         H  0.49881178  0.37466643  0.95263528     0.13700
H100        H  0.38133780  0.42948332  0.93199782     0.13500
C101        C  0.13394210  0.37095991  0.56625320     0.85300
C102        C  0.12354660  0.42280448  0.56247924    -0.54900
C103        C  0.10605368  0.44653007  0.58285244     0.08200
C104        C  0.09777683  0.41338471  0.60550459     0.19200
C105        C  0.16601846  0.36912585  0.58917220    -0.55700
C106        C  0.14796154  0.39107916  0.60987840     0.08300
C107        C  0.08737846  0.35024363  0.57482923    -0.55200
C108        C  0.06511594  0.37380267  0.59441237     0.08900
H109        H  0.13211316  0.43874315  0.54449626     0.13400
H110        H  0.08321036  0.43098347  0.62245472    -0.00900
H111        H  0.20034687  0.35236396  0.58901273     0.13700
H112        H  0.07236688  0.32216460  0.56377271     0.13500
C113        C  0.13250720  0.07573167  0.56961619     0.85300
C114        C  0.16537327  0.07571870  0.59219945    -0.54900
C115        C  0.14750168  0.05325116  0.61278649     0.08200
C116        C  0.09673245  0.03201348  0.60848848     0.19200
C117        C  0.12073511  0.02411457  0.56522779    -0.55700
C118        C  0.10409151  0.99948834  0.58556297     0.08300
C119        C  0.08708937  0.09740900  0.57906122    -0.55200
C120        C  0.06418210  0.07245723  0.59782674     0.08900
H121        H  0.20005351  0.09171791  0.59191870     0.13400
H122        H  0.08235848  0.01411667  0.62540073    -0.00900
H123        H  0.12785081  0.00902692  0.54689131     0.13700
H124        H  0.07272083  0.12690239  0.56883992     0.13500
C125        C  0.44252507  0.07367326  0.56852925     0.85300
C126        C  0.48712119  0.09587111  0.57837822    -0.54900
C127        C  0.01002633  0.07096061  0.59708501     0.08200
C128        C  0.47832133  0.02923078  0.60703483     0.19200
C129        C  0.45496744  0.02212083  0.56345204    -0.55700
C130        C  0.47066294  0.49869100  0.58486886     0.08300
C131        C  0.40929881  0.07200276  0.59102544    -0.55200
C132        C  0.42715314  0.04908272  0.61132597     0.08900
H133        H  0.00084084  0.12626291  0.56863912     0.13400
H134        H  0.49287266  0.01128208  0.62386260    -0.00900
H135        H  0.44656566  0.50906917  0.54649291     0.13700
H136        H  0.37451814  0.08784965  0.59108410     0.13500
C137        C  0.44158768  0.36868198  0.56941882     0.85300
C138        C  0.40977079  0.36845562  0.59239546    -0.54900
C139        C  0.42800523  0.39100239  0.61269906     0.08200
C140        C  0.47859598  0.41273379  0.60766180     0.19200
C141        C  0.45219668  0.42076239  0.56470866    -0.55700
C142        C  0.46984178  0.44544047  0.58480482     0.08300
C143        C  0.48725768  0.34714384  0.57825398    -0.55200
C144        C  0.51102659  0.37238944  0.59642711     0.08900
H145        H  0.37533166  0.35189793  0.59267720     0.13400
H146        H  0.49365281  0.43052725  0.62441036    -0.00900
H147        H  0.44315602  0.43635789  0.54685026     0.13700
H148        H  0.50104144  0.31723854  0.56811134     0.13500
C149        C  0.19802358  0.07275106  0.67878948     0.85300
C150        C  0.16108214  0.07191657  0.65793634    -0.54900
C151        C  0.17622028  0.05033913  0.63640899     0.08200
C152        C  0.22769649  0.02937445  0.63850814     0.19200
C153        C  0.21127435  0.02120876  0.68282130    -0.55700
C154        C  0.22455122  0.99666314  0.66180505     0.08300
C155        C  0.24015511  0.09560832  0.66678602    -0.55200
C156        C  0.26080575  0.07072379  0.64732755     0.08900
H157        H  0.12700801  0.08893912  0.65949508     0.13400
H158        H  0.23974457  0.01188021  0.62095795    -0.00900
H159        H  0.20726168  0.00579008  0.70129137     0.13700
H160        H  0.25441293  0.12635670  0.67587300     0.13500
C161        C  0.19385956  0.36907924  0.67657849     0.85300
C162        C  0.23707483  0.34639366  0.66554607    -0.54900
C163        C  0.25929904  0.37118392  0.64657772     0.08200
C164        C  0.22696756  0.41278980  0.63712135     0.19200
C165        C  0.20677900  0.42061397  0.68106525    -0.55700
C166        C  0.22182940  0.44530672  0.66038027     0.08300
C167        C  0.15872433  0.37031052  0.65488889    -0.55200
C168        C  0.17562057  0.39216324  0.63384503     0.08900
H169        H  0.25062055  0.31561071  0.67495640     0.13400
H170        H  0.24041393  0.43046563  0.61992575    -0.00900
H171        H  0.20086847  0.43590905  0.69942226     0.13700
H172        H  0.12433405  0.35377166  0.65565272     0.13500
C173        C  0.43443529  0.12559482  0.81922493     0.85300
C174        C  0.40991197  0.16697570  0.83099305    -0.54900
C175        C  0.43333892  0.18809303  0.85073399     0.08200
C176        C  0.47560175  0.15613913  0.85983477     0.19200
C177        C  0.48559664  0.14046381  0.81553572    -0.55700
C178        C  0.50909255  0.15399481  0.83681980     0.08300
C179        C  0.43590379  0.08847443  0.83993883    -0.55200
C180        C  0.45657137  0.10390506  0.86157551     0.08900
H181        H  0.37936444  0.18070047  0.82143746     0.13400
H182        H  0.49213790  0.16859102  0.87755208    -0.00900
H183        H  0.50178980  0.13667782  0.79722562     0.13700
H184        H  0.41992379  0.05394831  0.83819390     0.13500
C185        C  0.13951431  0.12545456  0.82247124     0.85300
C186        C  0.13564129  0.08812961  0.84299345    -0.54900
C187        C  0.11224299  0.10353674  0.86390374     0.08200
C188        C  0.09292406  0.15583460  0.86141571     0.19200
C189        C  0.08841466  0.13990407  0.81713149    -0.55700
C190        C  0.06224690  0.15331436  0.83759883     0.08300
C191        C  0.16269191  0.16641244  0.83566009    -0.55200
C192        C  0.13507340  0.18879656  0.85324800     0.08900
H193        H  0.15213071  0.05374837  0.84179652     0.13400
H194        H  0.07431451  0.16827915  0.87854797    -0.00900
H195        H  0.07442337  0.13625327  0.79830889     0.13700
H196        H  0.19580590  0.17966216  0.82855852     0.13500
C197        C  0.13277817  0.30733056  0.81956739     0.85300
C198        C  0.15475743  0.26334224  0.83005572    -0.54900
C199        C  0.13155980  0.24256832  0.85009913     0.08200
C200        C  0.09066408  0.27523172  0.85984075     0.19200
C201        C  0.08099865  0.29552179  0.81589044    -0.55700
C202        C  0.05734623  0.28015684  0.83680385     0.08300
C203        C  0.13335946  0.34253233  0.84134734    -0.55200
C204        C  0.11200979  0.32630432  0.86274895     0.08900
H205        H  0.18356190  0.24828604  0.81953648     0.13400
H206        H  0.07343358  0.26206688  0.87722584    -0.00900
H207        H  0.06484413  0.30196070  0.79780313     0.13700
H208        H  0.15027108  0.37668823  0.84025657     0.13500
C209        C  0.42747792  0.30599372  0.82156738     0.85300
C210        C  0.43088347  0.34255800  0.84248900    -0.54900
C211        C  0.45358460  0.32640145  0.86339969     0.08200
C212        C  0.47308527  0.27463292  0.86070138     0.19200
C213        C  0.47850398  0.29138331  0.81645097    -0.55700
C214        C  0.50429372  0.27807030  0.83706640     0.08300
C215        C  0.40417020  0.26438867  0.83411844    -0.55200
C216        C  0.43094564  0.24213665  0.85228656     0.08900
H217        H  0.41471666  0.37713567  0.84148556     0.13400
H218        H  0.49137025  0.26190505  0.87786515    -0.00900
H219        H  0.49281074  0.29497798  0.79768974     0.13700
H220        H  0.37166452  0.25120732  0.82632693     0.13500
C221        C  0.37833873  0.07143615  0.67691150     0.85300
C222        C  0.33757103  0.09615130  0.66455439    -0.54900
C223        C  0.31488630  0.07075520  0.64608653     0.08200
C224        C  0.34639278  0.02790259  0.63740490     0.19200
C225        C  0.36278995  0.02064537  0.68165826    -0.55700
C226        C  0.34857635  0.99588789  0.66094455     0.08300
C227        C  0.41511119  0.06796087  0.65618549    -0.55200
C228        C  0.39882024  0.04651511  0.63497187     0.08900
H229        H  0.32537685  0.12877211  0.67266048     0.13400
H230        H  0.33339243  0.01050255  0.62004368    -0.00900
H231        H  0.36661574  0.00556862  0.70020364     0.13700
H232        H  0.44983422  0.08370996  0.65744930     0.13500
C233        C  0.37533420  0.36738375  0.67793430     0.85300
C234        C  0.41350574  0.37060692  0.65772140    -0.54900
C235        C  0.39889988  0.39299875  0.63631550     0.08200
C236        C  0.34646158  0.41207953  0.63798607     0.19200
C237        C  0.36029657  0.41847832  0.68251186    -0.55700
C238        C  0.34772163  0.44367430  0.66156029     0.08300
C239        C  0.33484810  0.34369283  0.66466695    -0.55200
C240        C  0.31356731  0.36985802  0.64600473     0.08900
H241        H  0.44784850  0.35422355  0.65947603     0.13400
H242        H  0.33470357  0.42994650  0.62050423    -0.00900
H243        H  0.36289837  0.43325807  0.70122085     0.13700
H244        H  0.32156600  0.31113606  0.67234892     0.13500
In245      In  0.42334628  0.08223568  0.74766266     1.36900
C246        C  0.39294818  0.09187490  0.70172506     0.76400
O247        O  0.48769824  0.12846621  0.74458322    -0.62100
O248        O  0.49313378  0.05459389  0.75212536    -0.53000
C249        C  0.41505280  0.11145807  0.79404895     0.69100
O250        O  0.41320228  0.13999019  0.77567005    -0.47800
C251        C  0.41145037  0.99203537  0.74728556     0.73800
O252        O  0.36485469  0.09363485  0.72030519    -0.59700
O253        O  0.44968581  0.01221477  0.74237211    -0.49800
O254        O  0.43547330  0.09784609  0.70703913    -0.56100
C255        C  0.01374919  0.09330218  0.74880572     0.83900
O256        O  0.40924020  0.06907622  0.78838643    -0.58000
O257        O  0.37656112  0.01844291  0.75175169    -0.61300
In258      In  0.15486318  0.08376997  0.75059218     1.36900
C259        C  0.15880741  0.49487602  0.74751324     0.76400
O260        O  0.08505421  0.05603521  0.75506505    -0.62100
O261        O  0.09015733  0.12914937  0.74560976    -0.53000
C262        C  0.16144904  0.11221139  0.79758931     0.69100
O263        O  0.16795756  0.07006623  0.79162974    -0.47800
C264        C  0.18460592  0.09302701  0.70407001     0.73800
O265        O  0.20133320  0.01930028  0.75433413    -0.59700
O266        O  0.14247325  0.10023883  0.70984507    -0.49800
O267        O  0.12832161  0.01425669  0.74467291    -0.56100
C268        C  0.06425614  0.09384495  0.74994041     0.83900
O269        O  0.16387520  0.14108815  0.77935147    -0.58000
O270        O  0.21309183  0.09364691  0.72252303    -0.61300
In271      In  0.14678309  0.35407835  0.74794620     1.36900
C272        C  0.17823456  0.34800745  0.70138038     0.76400
O273        O  0.08256716  0.30775130  0.74450998    -0.62100
O274        O  0.07705893  0.38117392  0.75332873    -0.53000
C275        C  0.15287498  0.32226513  0.79438649     0.69100
O276        O  0.15367877  0.29471707  0.77552447    -0.47800
C277        C  0.15850222  0.44429587  0.74781563     0.73800
O278        O  0.20575095  0.34468808  0.72016437    -0.59700
O279        O  0.12089406  0.42386075  0.74189682    -0.49800
O280        O  0.13554615  0.34221049  0.70652023    -0.56100
C281        C  0.05654876  0.34264671  0.74962011     0.83900
O282        O  0.16102233  0.36458778  0.78924288    -0.58000
O283        O  0.19259215  0.41811276  0.75412147    -0.61300
In284      In  0.41544924  0.35253127  0.75031504     1.36900
C285        C  0.40404364  0.44304654  0.74982908     0.76400
O286        O  0.48513540  0.37950898  0.75651043    -0.62100
O287        O  0.48017887  0.30698691  0.74582025    -0.53000
C288        C  0.40637541  0.32124253  0.79676189     0.69100
O289        O  0.40209996  0.36399350  0.79142855    -0.47800
C290        C  0.38771310  0.34607686  0.70318001     0.73800
O291        O  0.36917141  0.41698476  0.75487019    -0.59700
O292        O  0.42951863  0.33812213  0.70937229    -0.49800
O293        O  0.44196070  0.42237337  0.74479750    -0.56100
C294        C  0.00602773  0.34190993  0.75085920     0.83900
O295        O  0.40316697  0.29359835  0.77801031    -0.58000
O296        O  0.35844238  0.34469001  0.72129029    -0.61300
In297      In  0.17946395  0.35402748  0.49396607     1.36900
C298        C  0.18561767  0.44741483  0.49305168     0.76400
O299        O  0.17808321  0.34140667  0.45267567    -0.62100
O300        O  0.11247722  0.34689318  0.47174010    -0.53000
C301        C  0.25484011  0.30306587  0.49346610     0.69100
O302        O  0.24508454  0.33162158  0.47616817    -0.47800
C303        C  0.15438533  0.35321877  0.54170667     0.73800
O304        O  0.22195349  0.42205233  0.49191384    -0.59700
O305        O  0.13133329  0.32962741  0.52539515    -0.49800
O306        O  0.14769085  0.42509114  0.49439410    -0.56100
C307        C  0.13471461  0.34909886  0.45103563     0.83900
O308        O  0.22135545  0.29232426  0.50803390    -0.58000
O309        O  0.19278973  0.37029359  0.53393009    -0.61300
In310      In  0.17647076  0.09470502  0.49723693     1.36900
C311        C  0.18552323  0.49876495  0.49347451     0.76400
O312        O  0.19049239  0.07716742  0.53692734    -0.62100
O313        O  0.12907639  0.11861652  0.52915112    -0.53000
C314        C  0.25278093  0.14444397  0.49613309     0.69100
O315        O  0.22035681  0.15509723  0.51140611    -0.47800
C316        C  0.13296849  0.09927522  0.45373377     0.73800
O317        O  0.21782900  0.02644974  0.49601786    -0.59700
O318        O  0.11015667  0.10281579  0.47425214    -0.49800
O319        O  0.14327797  0.02436822  0.49703644    -0.56100
C320        C  0.15239994  0.09429649  0.54510739     0.83900
O321        O  0.24140292  0.11701041  0.47863479    -0.58000
O322        O  0.17656673  0.10508768  0.45580146    -0.61300
In323      In  0.37782864  0.35445764  0.50230026     1.36900
C324        C  0.37106417  0.44784834  0.50379787     0.76400
O325        O  0.37692094  0.34385057  0.54368134    -0.62100
O326        O  0.44355169  0.34423146  0.52535357    -0.53000
C327        C  0.30304184  0.30240564  0.50150648     0.69100
O328        O  0.31293807  0.32861943  0.51978410    -0.47800
C329        C  0.40430242  0.35499435  0.45474379     0.73800
O330        O  0.33479540  0.42232778  0.50397199    -0.59700
O331        O  0.42749645  0.33148816  0.47107179    -0.49800
O332        O  0.40917766  0.42567148  0.50304622    -0.56100
C333        C  0.42069084  0.34798214  0.54584065     0.83900
O334        O  0.33636630  0.29394586  0.48645073    -0.58000
O335        O  0.36584061  0.37197573  0.46251079    -0.61300
In336      In  0.37657718  0.09179978  0.50226245     1.36900
C337        C  0.37098198  0.49922912  0.50394152     0.76400
O338        O  0.36354604  0.07548797  0.46239113    -0.62100
O339        O  0.42411378  0.11760670  0.47086558    -0.53000
C340        C  0.30152560  0.14370182  0.50326805     0.69100
O341        O  0.33405546  0.15288039  0.48782355    -0.47800
C342        C  0.42224127  0.09539110  0.54496977     0.73800
O343        O  0.33335502  0.02399486  0.50420760    -0.59700
O344        O  0.44425073  0.09635496  0.52415723    -0.49800
O345        O  0.40768022  0.02063548  0.50243518    -0.56100
C346        C  0.40129009  0.09383191  0.45452613     0.83900
O347        O  0.31226401  0.11625232  0.52090817    -0.58000
O348        O  0.37924344  0.10513965  0.54346278    -0.61300
C349        C  0.42272925  0.38501210  0.06872030     0.85300
C350        C  0.47439125  0.39731798  0.06415510    -0.54900
C351        C  0.99843119  0.41481382  0.08441444     0.08200
C352        C  0.46545823  0.42182998  0.10739961     0.19200
C353        C  0.42326143  0.35240581  0.09137083    -0.55700
C354        C  0.44499976  0.37071612  0.11188434     0.08300
C355        C  0.39987372  0.42975929  0.07795811    -0.55200
C356        C  0.42410148  0.45327977  0.09665326     0.08900
H357        H  0.99035283  0.38948672  0.04622024     0.13400
H358        H  0.48272754  0.43676440  0.12433439    -0.00900
H359        H  0.40731457  0.31768145  0.09138472     0.13700
H360        H  0.36984576  0.44313532  0.06779549     0.13500
C361        C  0.12928762  0.38958322  0.06957452     0.85300
C362        C  0.12759691  0.35580984  0.09180351    -0.54900
C363        C  0.10362528  0.37263166  0.11201209     0.08200
C364        C  0.08293392  0.42367448  0.10788454     0.19200
C365        C  0.07753931  0.40117582  0.06418505    -0.55700
C366        C  0.05161224  0.41674070  0.08442564     0.08300
C367        C  0.15053045  0.43415220  0.07998262    -0.55200
C368        C  0.12422301  0.45656773  0.09825014     0.08900
H369        H  0.14411215  0.32133383  0.09173443     0.13400
H370        H  0.06426791  0.43751513  0.12467996    -0.00900
H371        H  0.06301520  0.39394780  0.04579228     0.13700
H372        H  0.18118649  0.44844635  0.07076934     0.13500
C373        C  0.12448071  0.07821518  0.06993051     0.85300
C374        C  0.14577859  0.03235158  0.07915193    -0.54900
C375        C  0.12307191  0.51075482  0.09758038     0.08200
C376        C  0.08010303  0.04169034  0.10837799     0.19200
C377        C  0.07296192  0.06677623  0.06515449    -0.55700
C378        C  0.04823295  0.04884625  0.08513346     0.08300
C379        C  0.12416444  0.11051925  0.09264326    -0.55200
C380        C  0.10136079  0.09225313  0.11294578     0.08900
H381        H  0.17510235  0.01786437  0.06882919     0.13400
H382        H  0.06183009  0.02712329  0.12512219    -0.00900
H383        H  0.05800998  0.07511303  0.04700071     0.13700
H384        H  0.14039356  0.14510436  0.09270017     0.13500
C385        C  0.42039211  0.07315561  0.06699490     0.85300
C386        C  0.42017374  0.10748030  0.08904037    -0.54900
C387        C  0.44103960  0.09045236  0.11025631     0.08200
C388        C  0.46179381  0.03927176  0.10695710     0.19200
C389        C  0.47172371  0.05961553  0.06323462    -0.55700
C390        C  0.49542674  0.04519348  0.08424741     0.08300
C391        C  0.39723943  0.02902295  0.07697072    -0.55200
C392        C  0.42098828  0.00679379  0.09642563     0.08900
H393        H  0.40425432  0.14219054  0.08807965     0.13400
H394        H  0.47875012  0.02551477  0.12428479    -0.00900
H395        H  0.48757059  0.06395124  0.04485930     0.13700
H396        H  0.36768540  0.01489050  0.06673375     0.13500
C397        C  0.42437615  0.37301131  0.43020881     0.85300
C398        C  0.46946236  0.35113704  0.42041880    -0.54900
C399        C  0.99152616  0.37564818  0.40116083     0.08200
C400        C  0.45914070  0.41658072  0.39103548     0.19200
C401        C  0.43695637  0.42419293  0.43469029    -0.55700
C402        C  0.45269835  0.44882785  0.41425651     0.08300
C403        C  0.39085125  0.37340208  0.40783636    -0.55200
C404        C  0.40830284  0.39556069  0.38707135     0.08900
H405        H  0.98402724  0.32180369  0.43069465     0.13400
H406        H  0.47317309  0.43457515  0.37407461    -0.00900
H407        H  0.43131597  0.43904499  0.45321742     0.13700
H408        H  0.35625132  0.35723601  0.40829592     0.13500
C409        C  0.42163135  0.07689235  0.42985760     0.85300
C410        C  0.38911104  0.07790231  0.40715247    -0.54900
C411        C  0.40728021  0.05658583  0.38629355     0.08200
C412        C  0.45799271  0.03479361  0.39064093     0.19200
C413        C  0.43342131  0.02531822  0.43377706    -0.55700
C414        C  0.45059871  0.00148408  0.41341253     0.08300
C415        C  0.46722951  0.09891457  0.42091612    -0.55200
C416        C  0.49025665  0.07500698  0.40176441     0.08900
H417        H  0.35450234  0.09409672  0.40749953     0.13400
H418        H  0.47264591  0.01741726  0.37363568    -0.00900
H419        H  0.42614096  0.00964416  0.45189203     0.13700
H420        H  0.48146730  0.12781499  0.43164558     0.13500
C421        C  0.11248972  0.07803725  0.43009343     0.85300
C422        C  0.06733842  0.09978539  0.42056952    -0.54900
C423        C  0.04448375  0.07482144  0.40186672     0.08200
C424        C  0.07675400  0.03388083  0.39147137     0.19200
C425        C  0.10102523  0.02619319  0.43486718    -0.55700
C426        C  0.08538633  0.50161129  0.41364096     0.08300
C427        C  0.14530998  0.07749600  0.40747199    -0.55200
C428        C  0.12755341  0.05489564  0.38708099     0.08900
H429        H  0.05333977  0.12983850  0.43048631     0.13400
H430        H  0.06229379  0.01603823  0.37458521    -0.00900
H431        H  0.11069365  0.51042254  0.45189582     0.13700
H432        H  0.17973374  0.09405325  0.40737384     0.13500
C433        C  0.11410130  0.37108829  0.42770719     0.85300
C434        C  0.14661931  0.37268936  0.40502670    -0.54900
C435        C  0.12846587  0.39600953  0.38496048     0.08200
C436        C  0.07762954  0.41676206  0.38984572     0.19200
C437        C  0.10242008  0.42274419  0.43317533    -0.55700
C438        C  0.08537653  0.44834509  0.41324648     0.08300
C439        C  0.06916113  0.34935264  0.41803825    -0.55200
C440        C  0.04565191  0.37525752  0.39999805     0.08900
H441        H  0.18120955  0.35645470  0.40466964     0.13400
H442        H  0.06284292  0.43520667  0.37322645    -0.00900
H443        H  0.11047507  0.43750621  0.45138783     0.13700
H444        H  0.05564801  0.31855717  0.42747576     0.13500
C445        C  0.17571033  0.07923965  0.32135699     0.85300
C446        C  0.21744272  0.10304144  0.33338543    -0.54900
C447        C  0.24003479  0.07734572  0.35182212     0.08200
C448        C  0.20807897  0.03496336  0.36064502     0.19200
C449        C  0.19051143  0.02816081  0.31647864    -0.55700
C450        C  0.20498136  0.00313148  0.33716111     0.08300
C451        C  0.13946896  0.07611014  0.34240166    -0.55200
C452        C  0.15586585  0.05391580  0.36337519     0.08900
H453        H  0.23025310  0.13521118  0.32502603     0.13400
H454        H  0.22119985  0.01727584  0.37790079    -0.00900
H455        H  0.18621508  0.01324674  0.29792955     0.13700
H456        H  0.10480491  0.09206004  0.34139293     0.13500
C457        C  0.18005479  0.37385022  0.31966955     0.85300
C458        C  0.14209143  0.37707316  0.33992741    -0.53300
C459        C  0.15718201  0.39865138  0.36141378     0.08200
C460        C  0.20961823  0.41715486  0.35980877     0.19200
C461        C  0.19582960  0.42468299  0.31534252    -0.55700
C462        C  0.20835475  0.44934400  0.33642955     0.08300
C463        C  0.22031567  0.34922401  0.33257107    -0.55200
C464        C  0.24178691  0.37451165  0.35152502     0.08900
H465        H  0.10755058  0.36114219  0.33816000     0.13400
H466        H  0.22169646  0.43448737  0.37738245    -0.00900
H467        H  0.19336929  0.43984076  0.29673903     0.13700
H468        H  0.23330657  0.31693038  0.32442194     0.13500
C469        C  0.12009505  0.14033162  0.17937655     0.85300
C470        C  0.14330277  0.18306013  0.16827327    -0.54900
C471        C  0.12003056  0.20389853  0.14827184     0.08200
C472        C  0.07854127  0.17164643  0.13887669     0.19200
C473        C  0.06853849  0.15375161  0.18298806    -0.55700
C474        C  0.04497680  0.16778744  0.16177860     0.08300
C475        C  0.11987185  0.10423362  0.15810415    -0.55200
C476        C  0.09891770  0.12023228  0.13663106     0.08900
H477        H  0.17296698  0.19739957  0.17834585     0.13400
H478        H  0.06172574  0.18439346  0.12129297    -0.00900
H479        H  0.05232326  0.14903949  0.20120790     0.13700
H480        H  0.13643124  0.06989465  0.15945190     0.13500
C481        C  0.41468753  0.13938527  0.17599930     0.85300
C482        C  0.41748018  0.10332548  0.15476951    -0.54900
C483        C  0.44069798  0.11928288  0.13393108     0.08200
C484        C  0.46105077  0.17083653  0.13701986     0.19200
C485        C  0.46591373  0.15266893  0.18124152    -0.55700
C486        C  0.49191117  0.16688261  0.16086463     0.08300
C487        C  0.39257197  0.18205353  0.16388167    -0.55200
C488        C  0.41930896  0.20383127  0.14548726     0.08900
H489        H  0.40095305  0.06893323  0.15564517     0.13400
H490        H  0.47975122  0.18358101  0.11998259    -0.00900
H491        H  0.48001559  0.14797554  0.19995136     0.13700
H492        H  0.36082547  0.19593466  0.17219531     0.13500
C493        C  0.36008677  0.37350329  0.32073751     0.85300
C494        C  0.31795062  0.34995694  0.33237557    -0.54900
C495        C  0.29596826  0.37479356  0.35140245     0.08200
C496        C  0.32814422  0.41671151  0.36057040     0.19200
C497        C  0.34602494  0.42483253  0.31642521    -0.55700
C498        C  0.33182602  0.44934459  0.33731418     0.08300
C499        C  0.39622532  0.37529569  0.34197697    -0.55200
C500        C  0.37991234  0.39681563  0.36327699     0.08900
H501        H  0.30457130  0.31876031  0.32329612     0.13400
H502        H  0.31510365  0.43409742  0.37794281    -0.00900
H503        H  0.35049540  0.44021753  0.29799147     0.13700
H504        H  0.43078971  0.35916157  0.34077841     0.13500
C505        C  0.35795345  0.07878897  0.31986239     0.85300
C506        C  0.39446703  0.07765215  0.34104375    -0.54900
C507        C  0.37876739  0.05581313  0.36244802     0.08200
C508        C  0.32717404  0.03543916  0.35996673     0.19200
C509        C  0.34467538  0.02726290  0.31578605    -0.55700
C510        C  0.33107401  0.00273119  0.33679207     0.08300
C511        C  0.31546648  0.10169023  0.33158189    -0.55200
C512        C  0.29426329  0.07690252  0.35086502     0.08900
H513        H  0.42880501  0.09413375  0.33967041     0.13400
H514        H  0.31457429  0.01791953  0.37738982    -0.00900
H515        H  0.34924844  0.01183365  0.29734304     0.13700
H516        H  0.30133577  0.13243080  0.32236942     0.13500
C517        C  0.42083745  0.32065584  0.17748584     0.85300
C518        C  0.39634364  0.27990920  0.16504083    -0.54900
C519        C  0.42115426  0.25803021  0.14606214     0.08200
C520        C  0.46419800  0.28956134  0.13762005     0.19200
C521        C  0.47175509  0.30506140  0.18199601    -0.55700
C522        C  0.49639535  0.29140721  0.16104164     0.08300
C523        C  0.42422322  0.35792027  0.15685147    -0.55200
C524        C  0.44604028  0.34210570  0.13554849     0.08900
H525        H  0.36431565  0.26713529  0.17353173     0.13400
H526        H  0.48157031  0.27682194  0.12017897    -0.00900
H527        H  0.48710867  0.30889418  0.20049178     0.13700
H528        H  0.40864189  0.39266186  0.15833974     0.13500
C529        C  0.12609133  0.32010724  0.17672183     0.85300
C530        C  0.12281455  0.35795609  0.15659044    -0.54900
C531        C  0.10063081  0.34312703  0.13529543     0.08200
C532        C  0.08118488  0.29073567  0.13714490     0.19200
C533        C  0.07488901  0.30528907  0.18155563    -0.55700
C534        C  0.04953357  0.29240768  0.16074401     0.08300
C535        C  0.15008030  0.27978722  0.16345802    -0.55200
C536        C  0.12323581  0.25771650  0.14546325     0.08900
H537        H  0.13932574  0.39226089  0.15823544     0.13400
H538        H  0.06336048  0.27878346  0.11969268    -0.00900
H539        H  0.06014405  0.30827182  0.20024347     0.13700
H540        H  0.18311183  0.26676442  0.17074041     0.13500
In541      In  0.39961955  0.09199279  0.24715921     1.36900
C542        C  0.98999225  0.10273418  0.24635646     0.76400
O543        O  0.42614203  0.02227178  0.25183387    -0.62100
O544        O  0.35265906  0.02771476  0.24330810    -0.53000
C545        C  0.37165106  0.09910052  0.29450020     0.69100
O546        O  0.41387621  0.10464384  0.28833993    -0.47800
C547        C  0.39267378  0.12430182  0.20073278     0.73800
O548        O  0.46395686  0.13740372  0.25168853    -0.59700
O549        O  0.38577119  0.08174142  0.20580405    -0.49800
O550        O  0.46946294  0.06480135  0.24108418    -0.56100
C551        C  0.39402072  0.50249065  0.25066697     0.83900
O552        O  0.34275079  0.10158982  0.27625429    -0.58000
O553        O  0.39035194  0.15166470  0.21963309    -0.61300
In554      In  0.13067827  0.09292133  0.25023598     1.36900
C555        C  0.13973132  0.12537802  0.20452186     0.76400
O556        O  0.17622037  0.02891811  0.24426137    -0.62100
O557        O  0.10601652  0.02346193  0.25883032    -0.53000
C558        C  0.16017317  0.10046767  0.29672579     0.69100
O559        O  0.18824085  0.10578233  0.27827947    -0.47800
C560        C  0.04050682  0.10306100  0.24689348     0.73800
O561        O  0.13980976  0.15282216  0.22343650    -0.59700
O562        O  0.06210541  0.06632254  0.24055653    -0.49800
O563        O  0.14773957  0.08292489  0.20949681    -0.56100
C564        C  0.14766648  0.50343363  0.24733069     0.83900
O565        O  0.11735135  0.10346768  0.29123349    -0.58000
O566        O  0.06545631  0.13705487  0.25451551    -0.61300
In567      In  0.13787930  0.36191564  0.24788753     1.36900
C568        C  0.14796479  0.45277959  0.24735256     0.76400
O569        O  0.06757373  0.38867220  0.24519283    -0.62100
O570        O  0.07373614  0.31448326  0.25123405    -0.53000
C571        C  0.14742495  0.33320841  0.20155896     0.69100
O572        O  0.15353508  0.37539705  0.20741403    -0.47800
C573        C  0.16681710  0.35372084  0.29447281     0.73800
O574        O  0.18411698  0.42685268  0.24609191    -0.59700
O575        O  0.12473547  0.34665306  0.28861799    -0.49800
O576        O  0.10915519  0.43188047  0.24882773    -0.56100
C577        C  0.04725389  0.34992540  0.24833980     0.83900
O578        O  0.14951952  0.30432450  0.21976491    -0.58000
O579        O  0.19557031  0.35289514  0.27616640    -0.61300
In580      In  0.40609856  0.36178058  0.24944141     1.36900
C581        C  0.39985161  0.33448622  0.20246864     0.76400
O582        O  0.35973138  0.42588511  0.24468963    -0.62100
O583        O  0.43169374  0.43134175  0.25645745    -0.53000
C584        C  0.37493234  0.35307927  0.29569607     0.69100
O585        O  0.34710855  0.35129357  0.27697504    -0.47800
C586        C  0.49659281  0.35000866  0.24864801     0.73800
O587        O  0.39570037  0.30535417  0.22052072    -0.59700
O588        O  0.47600323  0.38844586  0.24481753    -0.49800
O589        O  0.39499009  0.37682724  0.20852553    -0.56100
C590        C  0.39403733  0.45192508  0.25076474     0.83900
O591        O  0.41745508  0.34666077  0.29039343    -0.58000
O592        O  0.47044006  0.31485619  0.25296638    -0.61300
In593      In  0.40981031  0.82249769  0.00050534     1.36900
C594        C  0.00316323  0.81793020  0.00222904     0.76400
O595        O  0.42813657  0.81044956  0.96092974    -0.62100
O596        O  0.38747379  0.87212894  0.96939880    -0.53000
C597        C  0.35967688  0.74631551  0.00000155     0.69100
O598        O  0.35044138  0.77915401  0.98472556    -0.47800
C599        C  0.40013357  0.86473334  0.04416275     0.73800
O600        O  0.47847049  0.78117819  0.00149753    -0.59700
O601        O  0.39877449  0.88797066  0.02373266    -0.49800
O602        O  0.48026487  0.85561336  0.00246440    -0.56100
C603        C  0.41182801  0.84923472  0.95330626     0.83900
O604        O  0.38677329  0.75674332  0.01783137    -0.58000
O605        O  0.39498253  0.82113793  0.04162794    -0.61300
In606      In  0.14750079  0.82499082  0.00383754     1.36900
C607        C  0.05441386  0.81855995  0.00253763     0.76400
O608        O  0.15368001  0.82391488  0.04539654    -0.62100
O609        O  0.15345133  0.89078819  0.02731555    -0.53000
C610        C  0.19716116  0.74923659  0.00616924     0.69100
O611        O  0.16770448  0.76008683  0.02281689    -0.47800
C612        C  0.15292615  0.84959314  0.95617765     0.73800
O613        O  0.07999227  0.78235672  0.00220650    -0.59700
O614        O  0.17391016  0.87366600  0.97310660    -0.49800
O615        O  0.07638351  0.85679073  0.00308873    -0.56100
C616        C  0.14810873  0.86751648  0.04757200     0.83900
O617        O  0.21033716  0.78233786  0.99191980    -0.58000
O618        O  0.13631002  0.81076452  0.96355051    -0.61300
In619      In  0.40689153  0.62043447  0.99501828     1.36900
C620        C  0.00022300  0.62681066  0.99493737     0.76400
O621        O  0.42100574  0.63383378  0.03519446    -0.62100
O622        O  0.38069675  0.57236744  0.02630909    -0.53000
C623        C  0.35815143  0.69750070  0.99303102     0.69100
O624        O  0.34691765  0.66562313  0.00849078    -0.47800
C625        C  0.40355573  0.57706773  0.95159607     0.73800
O626        O  0.47464017  0.66277477  0.99384985    -0.59700
O627        O  0.39965589  0.55396037  0.97198292    -0.49800
O628        O  0.47829036  0.58852781  0.99600138    -0.56100
C629        C  0.40346705  0.59562139  0.04290832     0.83900
O630        O  0.38562820  0.68523469  0.97572069    -0.58000
O631        O  0.39653553  0.62044775  0.95368838    -0.61300
In632      In  0.14488262  0.62503983  0.99702529     1.36900
C633        C  0.05152278  0.62778989  0.99529645     0.76400
O634        O  0.15494139  0.62655846  0.95564580    -0.62100
O635        O  0.15718479  0.55983283  0.97372103    -0.53000
C636        C  0.19472749  0.70138066  0.99768038     0.69100
O637        O  0.16412762  0.69297783  0.98122667    -0.47800
C638        C  0.14302518  0.59945996  0.04461921     0.73800
O639        O  0.07575620  0.66492464  0.99503771    -0.59700
O640        O  0.16908761  0.57765809  0.02888749    -0.49800
O641        O  0.07492407  0.59037039  0.99632694    -0.56100
C642        C  0.15269222  0.58270141  0.95330095     0.83900
O643        O  0.20710954  0.66681762  0.01110275    -0.58000
O644        O  0.12457273  0.63694055  0.03647936    -0.61300
C645        C  0.42642767  0.55746458  0.92821026     0.85300
C646        C  0.40415840  0.51389899  0.91715088    -0.54900
C647        C  0.43226427  0.99140337  0.89893351     0.08200
C648        C  0.47319691  0.52309028  0.89019213     0.19200
C649        C  0.47779684  0.54433111  0.93401820    -0.55700
C650        C  0.00402517  0.52925889  0.91380519     0.08300
C651        C  0.42974848  0.59166794  0.90624766    -0.55200
C652        C  0.45371520  0.57446268  0.88615370     0.08900
H653        H  0.37242813  0.50018160  0.92561670     0.13400
H654        H  0.49188364  0.50910693  0.87344032    -0.00900
H655        H  0.99199757  0.55060248  0.95260482     0.13700
H656        H  0.41393085  0.62646742  0.90629899     0.13500
C657        C  0.13288464  0.56140480  0.92960043     0.85300
C658        C  0.13390371  0.59307640  0.90651659    -0.54900
C659        C  0.11202446  0.57484716  0.88598848     0.08200
C660        C  0.09043579  0.52421317  0.89084241     0.19200
C661        C  0.08087089  0.55074394  0.93385688    -0.55700
C662        C  0.05712791  0.53234874  0.91371892     0.08300
C663        C  0.15447946  0.51542672  0.92120162    -0.55200
C664        C  0.13099512  0.49231210  0.90203696     0.08900
H665        H  0.15046539  0.62751445  0.90636991     0.13400
H666        H  0.07306019  0.50902120  0.87400901    -0.00900
H667        H  0.06449820  0.56009162  0.95151082     0.13700
H668        H  0.18314067  0.50132165  0.93217383     0.13500
C669        C  0.13588664  0.86958576  0.93144747     0.85300
C670        C  0.15752135  0.91540780  0.92251582    -0.54900
C671        C  0.13347053  0.93808217  0.90331627     0.08200
C672        C  0.09387562  0.90533136  0.89208613     0.19200
C673        C  0.08393504  0.88073031  0.93516785    -0.55700
C674        C  0.06035311  0.89757865  0.91457265     0.08300
C675        C  0.13741622  0.83692281  0.90877258    -0.55200
C676        C  0.11582963  0.85480844  0.88793237     0.08900
H677        H  0.18626290  0.93003963  0.93320464     0.13400
H678        H  0.07671265  0.91971479  0.87497176    -0.00900
H679        H  0.06793208  0.87313808  0.95307110     0.13700
H680        H  0.15387221  0.80243524  0.90914241     0.13500
C681        C  0.43108297  0.86981254  0.92927486     0.85300
C682        C  0.43194543  0.83676739  0.90681053    -0.54900
C683        C  0.45466619  0.85454331  0.88635875     0.08200
C684        C  0.47562088  0.90527048  0.89063724     0.19200
C685        C  0.48229011  0.88210798  0.93424125    -0.55700
C686        C  0.50741142  0.89829563  0.91402073     0.08300
C687        C  0.40949713  0.91502066  0.91966064    -0.55200
C688        C  0.43421744  0.93736714  0.90056775     0.08900
H689        H  0.41576668  0.80216303  0.90697640     0.13400
H690        H  0.49400926  0.91955996  0.87385896    -0.00900
H691        H  0.49665808  0.87577770  0.95268037     0.13700
H692        H  0.37995113  0.92939265  0.92983483     0.13500
C693        C  0.13207274  0.87110517  0.56885695     0.85300
C694        C  0.11964687  0.92253731  0.56490970    -0.54900
C695        C  0.10351982  0.94644850  0.58547051     0.08200
C696        C  0.09644562  0.91300657  0.60824500     0.19200
C697        C  0.16520537  0.87044088  0.59130576    -0.55700
C698        C  0.14732629  0.89164653  0.61224691     0.08300
C699        C  0.08713878  0.84859537  0.57811675    -0.55200
C700        C  0.06432536  0.87227495  0.59734789     0.08900
H701        H  0.12578779  0.93816505  0.54662356     0.13400
H702        H  0.08203790  0.93026520  0.62534734    -0.00900
H703        H  0.19985196  0.85432404  0.59077315     0.13700
H704        H  0.07312149  0.81941256  0.56754339     0.13500
C705        C  0.13165688  0.57554326  0.56725338     0.85300
C706        C  0.16456421  0.57581255  0.58981754    -0.54900
C707        C  0.14697540  0.55310780  0.61033216     0.08200
C708        C  0.09670633  0.53137194  0.60615915     0.19200
C709        C  0.12004847  0.52416516  0.56269813    -0.55700
C710        C  0.10437019  0.49928004  0.58302831     0.08300
C711        C  0.08579539  0.59654004  0.57663238    -0.55200
C712        C  0.06388076  0.57179515  0.59595481     0.08900
H713        H  0.19895152  0.59243759  0.58961659     0.13400
H714        H  0.08268506  0.51309524  0.62303376    -0.00900
H715        H  0.12612041  0.50933077  0.54416268     0.13700
H716        H  0.07077700  0.62538197  0.56617649     0.13500
C717        C  0.44147417  0.57548165  0.57006470     0.85300
C718        C  0.48595210  0.59797564  0.57979468    -0.54900
C719        C  0.00978676  0.57231378  0.59779691     0.08200
C720        C  0.47799538  0.53066682  0.60814173     0.19200
C721        C  0.45394910  0.52397756  0.56474496    -0.55700
C722        C  0.47162368  0.99723226  0.58376280     0.08300
C723        C  0.40865380  0.57367494  0.59264079    -0.55200
C724        C  0.42676859  0.55084650  0.61285007     0.08900
H725        H  0.99922419  0.62878519  0.57030059     0.13400
H726        H  0.49287198  0.51259086  0.62485448    -0.00900
H727        H  0.44746301  0.00688966  0.54529498     0.13700
H728        H  0.37385351  0.58951032  0.59282390     0.13500
C729        C  0.44256360  0.86741050  0.56898380     0.85300
C730        C  0.40941900  0.86855937  0.59147359    -0.54900
C731        C  0.42697859  0.89137225  0.61185180     0.08200
C732        C  0.47774744  0.91240134  0.60748826     0.19200
C733        C  0.45443968  0.91900966  0.56389247    -0.55700
C734        C  0.47090284  0.94415738  0.58407737     0.08300
C735        C  0.48744691  0.84567505  0.57897505    -0.55200
C736        C  0.51014802  0.87133741  0.59754244     0.08900
H737        H  0.37499052  0.85200337  0.59154020     0.13400
H738        H  0.49194429  0.93055534  0.62433546    -0.00900
H739        H  0.44726267  0.93401457  0.54565108     0.13700
H740        H  0.50145922  0.81518478  0.56945086     0.13500
C741        C  0.19411206  0.57500287  0.67642591     0.85300
C742        C  0.15831533  0.57336875  0.65514652    -0.54900
C743        C  0.17483078  0.55141963  0.63407182     0.08200
C744        C  0.22626500  0.53080893  0.63697806     0.19200
C745        C  0.20748116  0.52351823  0.68099778    -0.55700
C746        C  0.22186741  0.49855490  0.66030603     0.08300
C747        C  0.23657998  0.59803212  0.66475855    -0.55200
C748        C  0.25882304  0.57235388  0.64612250     0.08900
H749        H  0.12395231  0.58999396  0.65609711     0.13400
H750        H  0.23923660  0.51309041  0.61968767    -0.00900
H751        H  0.20249147  0.50840786  0.69947722     0.13700
H752        H  0.24976671  0.62972923  0.67343551     0.13500
C753        C  0.19684148  0.86730865  0.67815677     0.85300
C754        C  0.23852710  0.84376213  0.66596767    -0.54900
C755        C  0.26004861  0.86892689  0.64693482     0.08200
C756        C  0.22786944  0.91132860  0.63836067     0.19200
C757        C  0.21135463  0.91845573  0.68268211    -0.55700
C758        C  0.22499915  0.94342016  0.66180834     0.08300
C759        C  0.16005601  0.86996928  0.65721536    -0.55200
C760        C  0.17590266  0.89204777  0.63596650     0.08900
H761        H  0.25207398  0.81224954  0.67466268     0.13400
H762        H  0.24051879  0.92907640  0.62101275    -0.00900
H763        H  0.20735851  0.93341819  0.70126606     0.13700
H764        H  0.12545909  0.85401016  0.65854928     0.13500
C765        C  0.43135813  0.62600781  0.82142945     0.85300
C766        C  0.40684006  0.66608058  0.83465463    -0.54900
C767        C  0.43296988  0.68812984  0.85306964     0.08200
C768        C  0.47568132  0.65601309  0.86114597     0.19200
C769        C  0.48203189  0.64192215  0.81662881    -0.55700
C770        C  0.50717742  0.65504948  0.83748831     0.08300
C771        C  0.43536984  0.58822887  0.84154930    -0.55200
C772        C  0.45713602  0.60348655  0.86286460     0.08900
H773        H  0.37391009  0.67869099  0.82708172     0.13400
H774        H  0.49340496  0.66811930  0.87860197    -0.00900
H775        H  0.49661446  0.63913804  0.79790190     0.13700
H776        H  0.41936492  0.55369124  0.83993338     0.13500
C777        C  0.13502351  0.62615948  0.82017601     0.85300
C778        C  0.13175983  0.58841604  0.84065876    -0.54900
C779        C  0.11063311  0.60386371  0.86226781     0.08200
C780        C  0.09267430  0.65660499  0.86050185     0.19200
C781        C  0.08438831  0.64248363  0.81606179    -0.55700
C782        C  0.06019562  0.65564537  0.83718948     0.08300
C783        C  0.16011059  0.66651120  0.83277377    -0.55200
C784        C  0.13551496  0.68827511  0.85193674     0.08900
H785        H  0.14709169  0.55359296  0.83883275     0.13400
H786        H  0.07562841  0.66912482  0.87807937    -0.00900
H787        H  0.06896065  0.63991244  0.79752148     0.13700
H788        H  0.19197845  0.67943552  0.82415832     0.13500
C789        C  0.13890858  0.80721636  0.82164529     0.85300
C790        C  0.16170267  0.76449091  0.83329578    -0.54900
C791        C  0.13609806  0.74252296  0.85204508     0.08200
C792        C  0.09438992  0.77512944  0.86104552     0.19200
C793        C  0.08749448  0.79391567  0.81695776    -0.55700
C794        C  0.06240394  0.77927017  0.83756494     0.08300
C795        C  0.13700893  0.84303247  0.84300945    -0.55200
C796        C  0.11481591  0.82667167  0.86407208     0.08900
H797        H  0.19309427  0.75083758  0.82450672     0.13400
H798        H  0.07644297  0.76213928  0.87826052    -0.00900
H799        H  0.07254155  0.79907449  0.79846797     0.13700
H800        H  0.15355256  0.87741035  0.84207829     0.13500
C801        C  0.43310902  0.80529215  0.82039908     0.85300
C802        C  0.43467924  0.84191526  0.84139861    -0.54900
C803        C  0.45650032  0.82622324  0.86271420     0.08200
C804        C  0.47647631  0.77455505  0.86045149     0.19200
C805        C  0.48455252  0.79139468  0.81618670    -0.55700
C806        C  0.50913242  0.77790228  0.83719214     0.08300
C807        C  0.40985639  0.76331487  0.83226799    -0.55200
C808        C  0.43445375  0.74219231  0.85164573     0.08900
H809        H  0.41814966  0.87627093  0.84006934     0.13400
H810        H  0.49392220  0.76205407  0.87791570    -0.00900
H811        H  0.49999324  0.79555218  0.79772773     0.13700
H812        H  0.37894847  0.74947100  0.82312042     0.13500
C813        C  0.37521213  0.57250945  0.67829122     0.85300
C814        C  0.33416948  0.59635952  0.66586860    -0.54900
C815        C  0.31298851  0.57141785  0.64674312     0.08200
C816        C  0.34545505  0.52907480  0.63824560     0.19200
C817        C  0.36075021  0.52133859  0.68263439    -0.55700
C818        C  0.34747177  0.49676210  0.66166092     0.08300
C819        C  0.41274245  0.57021973  0.65778803    -0.55200
C820        C  0.39775743  0.54831250  0.63638800     0.08900
H821        H  0.32082261  0.62810168  0.67443014     0.13400
H822        H  0.33327418  0.51166739  0.62071854    -0.00900
H823        H  0.36474011  0.50594186  0.70112004     0.13700
H824        H  0.44705671  0.58670045  0.65941673     0.13500
C825        C  0.37740739  0.86693275  0.67743948     0.85300
C826        C  0.41439260  0.87045507  0.65670347    -0.54900
C827        C  0.39844532  0.89241513  0.63550651     0.08200
C828        C  0.34608175  0.91085870  0.63774477     0.19200
C829        C  0.36183355  0.91786999  0.68209683    -0.55700
C830        C  0.34811728  0.94275575  0.66118868     0.08300
C831        C  0.33638977  0.84270246  0.66491724    -0.55200
C832        C  0.31422926  0.86827441  0.64626426     0.08900
H833        H  0.44914229  0.85477965  0.65803867     0.13400
H834        H  0.33336045  0.92839822  0.62035908    -0.00900
H835        H  0.36530243  0.93285854  0.70069091     0.13700
H836        H  0.32344408  0.81052587  0.67318810     0.13500
In837      In  0.41644442  0.58408964  0.74973703     1.36900
C838        C  0.38827664  0.59314036  0.70332448     0.76400
O839        O  0.48005538  0.63189016  0.74818841    -0.62100
O840        O  0.48634212  0.55672097  0.74825832    -0.53000
C841        C  0.41028872  0.61220862  0.79657441     0.69100
O842        O  0.40656297  0.64110392  0.77843733    -0.47800
C843        C  0.40438405  0.49366730  0.75019304     0.73800
O844        O  0.35919892  0.59522402  0.72149390    -0.59700
O845        O  0.44346005  0.51385608  0.74808423    -0.49800
O846        O  0.43042448  0.59915091  0.70924781    -0.56100
C847        C  0.00645590  0.59589109  0.74792885     0.83900
O848        O  0.40536586  0.56983602  0.79065567    -0.58000
O849        O  0.36879297  0.52019182  0.75248652    -0.61300
In850      In  0.14741770  0.58537682  0.74744123     1.36900
C851        C  0.16629866  0.99344629  0.74931342     0.76400
O852        O  0.07762776  0.55723187  0.74736671    -0.62100
O853        O  0.08291293  0.63237881  0.74675560    -0.53000
C854        C  0.15442875  0.61249309  0.79476601     0.69100
O855        O  0.15848005  0.57021444  0.78845098    -0.47800
C856        C  0.17907577  0.59558668  0.70133168     0.73800
O857        O  0.19346194  0.52099018  0.75290615    -0.59700
O858        O  0.13654313  0.60196132  0.70652554    -0.49800
O859        O  0.12115743  0.51549564  0.74193101    -0.56100
C860        C  0.05694276  0.59622759  0.74723323     0.83900
O861        O  0.15747473  0.64166830  0.77668371    -0.58000
O862        O  0.20659064  0.59673486  0.72015516    -0.61300
In863      In  0.15307183  0.85288973  0.75008673     1.36900
C864        C  0.18258128  0.84627680  0.70321548     0.76400
O865        O  0.08900367  0.80670140  0.74551699    -0.62100
O866        O  0.08303616  0.87932172  0.75596382    -0.53000
C867        C  0.15999757  0.82232184  0.79676174     0.69100
O868        O  0.16321344  0.79444096  0.77810067    -0.47800
C869        C  0.16579481  0.94290202  0.74931614     0.73800
O870        O  0.21099684  0.84324718  0.72164985    -0.59700
O871        O  0.12754135  0.92281119  0.74436621    -0.49800
O872        O  0.14017324  0.84034491  0.70892154    -0.56100
C873        C  0.06268732  0.84120959  0.75092999     0.83900
O874        O  0.16526958  0.86496371  0.79136590    -0.58000
O875        O  0.20022794  0.91643925  0.75466943    -0.61300
In876      In  0.42147367  0.85118243  0.74933216     1.36900
C877        C  0.41124350  0.94157309  0.74832545     0.76400
O878        O  0.49081440  0.87744421  0.75721889    -0.62100
O879        O  0.48651777  0.80624085  0.74413024    -0.53000
C880        C  0.41232807  0.81945830  0.79533516     0.69100
O881        O  0.40359672  0.86161327  0.79011468    -0.47800
C882        C  0.39211284  0.84579968  0.70236351     0.73800
O883        O  0.37538453  0.91591794  0.75164806    -0.59700
O884        O  0.43465110  0.84058263  0.70803223    -0.49800
O885        O  0.44990126  0.92065032  0.74605299    -0.56100
C886        C  0.01205763  0.84056799  0.75093757     0.83900
O887        O  0.41212308  0.79169490  0.77657502    -0.58000
O888        O  0.36377083  0.84176036  0.72075831    -0.61300
In889      In  0.17601525  0.85724634  0.49658113     1.36900
C890        C  0.18076847  0.95047042  0.49634325     0.76400
O891        O  0.17730517  0.84762890  0.45530009    -0.62100
O892        O  0.11040509  0.84616578  0.47327482    -0.53000
C893        C  0.25243803  0.80788266  0.49503906     0.69100
O894        O  0.24213819  0.83815911  0.47872100    -0.47800
C895        C  0.15180152  0.85400893  0.54420828     0.73800
O896        O  0.21728394  0.92541644  0.49633698    -0.59700
O897        O  0.12788123  0.83189469  0.52766620    -0.49800
O898        O  0.14279171  0.92799505  0.49657862    -0.56100
C899        C  0.13352035  0.85081024  0.45292575     0.83900
O900        O  0.21959772  0.79588038  0.50975989    -0.58000
O901        O  0.19013860  0.87120094  0.53651450    -0.61300
In902      In  0.17888211  0.59223909  0.49559660     1.36900
C903        C  0.18106873  0.00165503  0.49636779     0.76400
O904        O  0.19070370  0.57576920  0.53541057    -0.62100
O905        O  0.12999784  0.61744699  0.52661572    -0.53000
C906        C  0.25468784  0.64242070  0.49616943     0.69100
O907        O  0.22099272  0.65288642  0.51065098    -0.47800
C908        C  0.13386006  0.59914128  0.45295699     0.73800
O909        O  0.22171032  0.52429074  0.49267840    -0.59700
O910        O  0.11175588  0.59883773  0.47370171    -0.49800
O911        O  0.14755996  0.52092651  0.49523071    -0.56100
C912        C  0.15246408  0.59349848  0.54298228     0.83900
O913        O  0.24539031  0.61395177  0.47874024    -0.58000
O914        O  0.17683830  0.60877375  0.45465552    -0.61300
In915      In  0.37757528  0.85376059  0.50209268     1.36900
C916        C  0.36994083  0.94713024  0.50400281     0.76400
O917        O  0.37828704  0.84096017  0.54329814    -0.62100
O918        O  0.44443556  0.84386481  0.52460002    -0.53000
C919        C  0.30145269  0.80317074  0.50119076     0.69100
O920        O  0.31522704  0.82321778  0.52091726    -0.47800
C921        C  0.40432347  0.85475386  0.45468241     0.73800
O922        O  0.33394075  0.92132498  0.50493826    -0.59700
O923        O  0.42732529  0.83074239  0.47092112    -0.49800
O924        O  0.40810227  0.92523637  0.50267444    -0.56100
C925        C  0.42196158  0.84643689  0.54527561     0.83900
O926        O  0.33205815  0.79860369  0.48418243    -0.58000
O927        O  0.36596471  0.87186967  0.46245768    -0.61300
In928      In  0.37755385  0.59259977  0.50334920     1.36900
C929        C  0.36967129  0.99848461  0.50373807     0.76400
O930        O  0.36449194  0.57752118  0.46334489    -0.62100
O931        O  0.42682901  0.61663696  0.47237005    -0.53000
C932        C  0.30298003  0.64478035  0.50392577     0.69100
O933        O  0.33546640  0.65323609  0.48837897    -0.47800
C934        C  0.42062540  0.59684623  0.54669720     0.73800
O935        O  0.33462879  0.52469637  0.50419634    -0.59700
O936        O  0.44354299  0.60188992  0.52628907    -0.49800
O937        O  0.40904518  0.52145362  0.50340251    -0.56100
C938        C  0.40317152  0.59431133  0.45576057     0.83900
O939        O  0.31411147  0.61923342  0.52226970    -0.58000
O940        O  0.37682690  0.60086538  0.54465136    -0.61300
C941        C  0.41943095  0.88483574  0.06832711     0.85300
C942        C  0.47112285  0.89731565  0.06408539    -0.54900
C943        C  0.99491844  0.91419640  0.08462569     0.08200
C944        C  0.46174675  0.92054822  0.10750691     0.19200
C945        C  0.41968274  0.85157074  0.09075604    -0.55700
C946        C  0.44118927  0.86933486  0.11151539     0.08300
C947        C  0.39656483  0.92940678  0.07794610    -0.55200
C948        C  0.42081021  0.95253417  0.09686613     0.08900
H949        H  0.98721287  0.89042440  0.04607113     0.13400
H950        H  0.47882237  0.93495631  0.12462492    -0.00900
H951        H  0.40364021  0.81689174  0.09045823     0.13700
H952        H  0.36666674  0.94306856  0.06778764     0.13500
C953        C  0.12547226  0.88771809  0.07083079     0.85300
C954        C  0.12302037  0.85475866  0.09337156    -0.54900
C955        C  0.09906182  0.87265629  0.11332680     0.08200
C956        C  0.07895457  0.92365558  0.10855400     0.19200
C957        C  0.07408704  0.89972496  0.06503524    -0.55700
C958        C  0.04800719  0.91621268  0.08495625     0.08300
C959        C  0.14711883  0.93238010  0.08085353    -0.55200
C960        C  0.12090770  0.95556752  0.09885403     0.08900
H961        H  0.13906027  0.82006760  0.09368594     0.13400
H962        H  0.06011648  0.93833574  0.12508316    -0.00900
H963        H  0.05982060  0.89172788  0.04669532     0.13700
H964        H  0.17806726  0.94607237  0.07164886     0.13500
C965        C  0.12470966  0.57854597  0.06885948     0.85300
C966        C  0.14752318  0.53384418  0.07859272    -0.54900
C967        C  0.12088517  0.00963349  0.09808768     0.08200
C968        C  0.08141529  0.54215917  0.10768397     0.19200
C969        C  0.07373359  0.56493217  0.06413743    -0.55700
C970        C  0.04923467  0.54820180  0.08446736     0.08300
C971        C  0.12328622  0.61167706  0.09125368    -0.55200
C972        C  0.10133398  0.59336605  0.11181058     0.08900
H973        H  0.17749623  0.52015990  0.06851644     0.13400
H974        H  0.06362428  0.52760013  0.12457910    -0.00900
H975        H  0.05894873  0.57087136  0.04570423     0.13700
H976        H  0.13871831  0.64662752  0.09100831     0.13500
C977        C  0.42070522  0.57544266  0.06766954     0.85300
C978        C  0.41976854  0.60826288  0.09037578    -0.54900
C979        C  0.44137519  0.59038032  0.11125439     0.08200
C980        C  0.46332285  0.53999328  0.10700469     0.19200
C981        C  0.47235832  0.56375406  0.06369105    -0.55700
C982        C  0.49639764  0.54753774  0.08422675     0.08300
C983        C  0.39911342  0.52977880  0.07685707    -0.55200
C984        C  0.42332469  0.50738301  0.09614739     0.08900
H985        H  0.40334585  0.64276278  0.09002615     0.13400
H986        H  0.48086462  0.52565523  0.12402139    -0.00900
H987        H  0.48794701  0.57048200  0.04552200     0.13700
H988        H  0.37029981  0.51506773  0.06625842     0.13500
C989        C  0.42423624  0.87271799  0.43012210     0.85300
C990        C  0.46888338  0.85028442  0.42031109    -0.54900
C991        C  0.99135417  0.87472310  0.40115381     0.08200
C992        C  0.45906495  0.91568825  0.39080712     0.19200
C993        C  0.43716689  0.92403551  0.43438696    -0.55700
C994        C  0.45257048  0.94848802  0.41373147     0.08300
C995        C  0.39057158  0.87307726  0.40782076    -0.55200
C996        C  0.40810288  0.89500728  0.38700359     0.08900
H997        H  0.98321111  0.82079048  0.43052691     0.13400
H998        H  0.47313688  0.93331926  0.37374325    -0.00900
H999        H  0.43179362  0.93905459  0.45288036     0.13700
H1000       H  0.35584231  0.85718222  0.40837386     0.13500
C1001       C  0.42323360  0.57694014  0.43109081     0.85300
C1002       C  0.38999452  0.57722100  0.40863873    -0.54900
C1003       C  0.40782091  0.55559578  0.38779742     0.08200
C1004       C  0.45874319  0.53464428  0.39170161     0.19200
C1005       C  0.43562496  0.52551807  0.43510060    -0.55700
C1006       C  0.45214972  0.50165639  0.41453189     0.08300
C1007       C  0.46844110  0.59916386  0.42164185    -0.55200
C1008       C  0.49097084  0.57514826  0.40231316     0.08900
H1009       H  0.35530536  0.59322549  0.40911346     0.13400
H1010       H  0.47302063  0.51724882  0.37461369    -0.00900
H1011       H  0.42893971  0.50990482  0.45334407     0.13700
H1012       H  0.48279892  0.62832824  0.43210507     0.13500
C1013       C  0.11366402  0.57817120  0.42928396     0.85300
C1014       C  0.06842388  0.60002765  0.42010679    -0.54900
C1015       C  0.04515636  0.57521845  0.40157035     0.08200
C1016       C  0.07740355  0.53443566  0.39074403     0.19200
C1017       C  0.10244296  0.52615559  0.43393210    -0.55700
C1018       C  0.08414930  0.00146379  0.41455994     0.08300
C1019       C  0.14616438  0.57805904  0.40654260    -0.55200
C1020       C  0.12818493  0.55562738  0.38613130     0.08900
H1021       H  0.05460186  0.62992736  0.43022507     0.13400
H1022       H  0.06266307  0.51680290  0.37387009    -0.00900
H1023       H  0.10915857  0.01073279  0.45291706     0.13700
H1024       H  0.18069273  0.59442277  0.40644516     0.13500
C1025       C  0.11291386  0.87168238  0.42932360     0.85300
C1026       C  0.14620480  0.87341428  0.40691626    -0.54900
C1027       C  0.12842396  0.89619463  0.38659497     0.08200
C1028       C  0.07730713  0.91644405  0.39092775     0.19200
C1029       C  0.10022546  0.92307785  0.43452524    -0.55700
C1030       C  0.08386884  0.94828759  0.41433841     0.08300
C1031       C  0.06854623  0.84927613  0.41928126    -0.55200
C1032       C  0.04548633  0.87471412  0.40081480     0.08900
H1033       H  0.18087170  0.85729195  0.40687081     0.13400
H1034       H  0.06289116  0.93453276  0.37410627    -0.00900
H1035       H  0.10713706  0.93803168  0.45284729     0.13700
H1036       H  0.05499752  0.81853660  0.42876701     0.13500
C1037       C  0.17833167  0.57833928  0.32042192     0.85300
C1038       C  0.22008967  0.60164091  0.33262623    -0.54900
C1039       C  0.24153964  0.57635609  0.35159770     0.08200
C1040       C  0.20902310  0.53430172  0.36018781     0.19200
C1041       C  0.19237202  0.52713026  0.31588705    -0.55700
C1042       C  0.20652525  0.50236661  0.33667773     0.08300
C1043       C  0.14140176  0.57609499  0.34122746    -0.55200
C1044       C  0.15689180  0.55389460  0.36246288     0.08900
H1045       H  0.23367165  0.63320327  0.32399513     0.13400
H1046       H  0.22146723  0.51656808  0.37757474    -0.00900
H1047       H  0.18784689  0.51205852  0.29737767     0.13700
H1048       H  0.10704195  0.59260924  0.33987076     0.13500
C1049       C  0.17773473  0.87372394  0.32087061     0.85300
C1050       C  0.14118455  0.87566298  0.34182586    -0.53300
C1051       C  0.15692335  0.89788396  0.36296946     0.08200
C1052       C  0.20880641  0.91775980  0.36050293     0.19200
C1053       C  0.19146304  0.92513040  0.31633619    -0.55700
C1054       C  0.20539123  0.94997303  0.33711840     0.08300
C1055       C  0.21963445  0.85045547  0.33282890    -0.55200
C1056       C  0.24137368  0.87581388  0.35164685     0.08900
H1057       H  0.10687755  0.85905309  0.34062131     0.13400
H1058       H  0.22144021  0.93536456  0.37788498    -0.00900
H1059       H  0.18694366  0.94039307  0.29788517     0.13700
H1060       H  0.23292210  0.81875613  0.32420154     0.13500
C1061       C  0.12397937  0.64189907  0.17770215     0.85300
C1062       C  0.14673029  0.68410421  0.16568759    -0.54900
C1063       C  0.12094103  0.70558999  0.14687880     0.08200
C1064       C  0.07926203  0.67279579  0.13815629     0.19200
C1065       C  0.07248890  0.65527003  0.18236187    -0.55700
C1066       C  0.04726789  0.66882033  0.16157367     0.08300
C1067       C  0.12211291  0.60552072  0.15662630    -0.55200
C1068       C  0.09969712  0.62135413  0.13553944     0.08900
H1069       H  0.17831055  0.69780119  0.17425444     0.13400
H1070       H  0.06133116  0.68536482  0.12085539    -0.00900
H1071       H  0.05753222  0.65048364  0.20089798     0.13700
H1072       H  0.13894436  0.57128063  0.15770681     0.13500
C1073       C  0.41855885  0.63805172  0.17790728     0.85300
C1074       C  0.42070441  0.60189151  0.15657243    -0.54900
C1075       C  0.44223812  0.61836508  0.13525792     0.08200
C1076       C  0.46174373  0.67015670  0.13803285     0.19200
C1077       C  0.46970837  0.65235531  0.18225188    -0.55700
C1078       C  0.49413176  0.66699868  0.16144879     0.08300
C1079       C  0.39498748  0.68027510  0.16627073    -0.55200
C1080       C  0.41942325  0.70189257  0.14695022     0.08900
H1081       H  0.40478810  0.56724779  0.15772836     0.13400
H1082       H  0.47922487  0.68325386  0.12070730    -0.00900
H1083       H  0.48504012  0.64799626  0.20072260     0.13700
H1084       H  0.36410552  0.69396835  0.17555956     0.13500
C1085       C  0.35968280  0.87323807  0.32088231     0.85300
C1086       C  0.31733944  0.85031250  0.33268217    -0.54900
C1087       C  0.29554506  0.87570290  0.35155953     0.08200
C1088       C  0.32817800  0.91732112  0.36055272     0.19200
C1089       C  0.34634323  0.92463516  0.31642331    -0.55700
C1090       C  0.33207644  0.94954000  0.33713533     0.08300
C1091       C  0.39584332  0.87475663  0.34205188    -0.55200
C1092       C  0.37972531  0.89667541  0.36328326     0.08900
H1093       H  0.30395580  0.81879600  0.32394412     0.13400
H1094       H  0.31540948  0.93510070  0.37787171    -0.00900
H1095       H  0.35114866  0.93967716  0.29791059     0.13700
H1096       H  0.43013095  0.85805891  0.34090596     0.13500
C1097       C  0.36043168  0.57889449  0.32159908     0.85300
C1098       C  0.39627358  0.57661081  0.34291467    -0.54900
C1099       C  0.37971449  0.55458808  0.36397817     0.08200
C1100       C  0.32803288  0.53457474  0.36097944     0.19200
C1101       C  0.34661680  0.52762877  0.31687101    -0.55700
C1102       C  0.33206987  0.50257170  0.33751967     0.08300
C1103       C  0.31805232  0.60209540  0.33333524    -0.55200
C1104       C  0.29575400  0.57653879  0.35197335     0.08900
H1105       H  0.43078879  0.59287308  0.34197138     0.13400
H1106       H  0.31488705  0.51672712  0.37819116    -0.00900
H1107       H  0.35158350  0.51271707  0.29836693     0.13700
H1108       H  0.30487682  0.63381842  0.32467897     0.13500
C1109       C  0.41504188  0.81881835  0.17679111     0.85300
C1110       C  0.39123139  0.77799339  0.16387749    -0.54900
C1111       C  0.41775487  0.75594600  0.14560925     0.08200
C1112       C  0.46043296  0.78816666  0.13749072     0.19200
C1113       C  0.46585623  0.80351864  0.18190093    -0.55700
C1114       C  0.49154403  0.79025762  0.16126295     0.08300
C1115       C  0.41906258  0.85610590  0.15621654    -0.55200
C1116       C  0.44170745  0.84048976  0.13513979     0.08900
H1117       H  0.35859029  0.76492253  0.17158876     0.13400
H1118       H  0.47862282  0.77557429  0.12026002    -0.00900
H1119       H  0.48031831  0.80714511  0.20061564     0.13700
H1120       H  0.40318009  0.89075854  0.15754339     0.13500
C1121       C  0.11936394  0.82143440  0.17863355     0.85300
C1122       C  0.11593814  0.85929459  0.15842047    -0.54900
C1123       C  0.09516659  0.84390039  0.13680735     0.08200
C1124       C  0.07717457  0.79117380  0.13832974     0.19200
C1125       C  0.06863675  0.80505429  0.18281746    -0.55700
C1126       C  0.04459947  0.79169103  0.16164270     0.08300
C1127       C  0.14468270  0.78153819  0.16585052    -0.55200
C1128       C  0.12012395  0.75970382  0.14678619     0.08900
H1129       H  0.13156868  0.89397574  0.16025253     0.13400
H1130       H  0.06035524  0.77890504  0.12065520    -0.00900
H1131       H  0.05313996  0.80741637  0.20136257     0.13700
H1132       H  0.17696043  0.76902389  0.17420652     0.13500
In1133     In  0.40545597  0.59280308  0.24983317     1.36900
C1134       C  0.99564704  0.60475065  0.24876797     0.76400
O1135       O  0.43200557  0.52308092  0.25555484    -0.62100
O1136       O  0.35924163  0.52853467  0.24536567    -0.53000
C1137       C  0.37574184  0.59984395  0.29673694     0.69100
O1138       O  0.41846047  0.60310860  0.29109890    -0.47800
C1139       C  0.39815899  0.62338516  0.20309604     0.73800
O1140       O  0.46950940  0.63881983  0.25526015    -0.59700
O1141       O  0.39139194  0.58099057  0.20857836    -0.49800
O1142       O  0.47516922  0.56727139  0.24280102    -0.56100
C1143       C  0.38778174  0.00166095  0.24795043     0.83900
O1144       O  0.34767685  0.60450168  0.27823621    -0.58000
O1145       O  0.39641612  0.65137537  0.22177215    -0.61300
In1146     In  0.13664974  0.59413755  0.24831772     1.36900
C1147       C  0.14527034  0.62733579  0.20253942     0.76400
O1148       O  0.18349810  0.52971010  0.24582819    -0.62100
O1149       O  0.10864809  0.52392423  0.24903157    -0.53000
C1150       C  0.16476663  0.59924499  0.29538371     0.69100
O1151       O  0.19368739  0.60182709  0.27717462    -0.47800
C1152       C  0.04620649  0.60512225  0.24837167     0.73800
O1153       O  0.14568181  0.65455695  0.22150710    -0.59700
O1154       O  0.06695742  0.56784958  0.24215455    -0.49800
O1155       O  0.15384262  0.58507497  0.20742988    -0.56100
C1156       C  0.14299452  0.00293988  0.25192712     0.83900
O1157       O  0.12257287  0.60556878  0.28944911    -0.58000
O1158       O  0.07215422  0.63948262  0.25446642    -0.61300
In1159     In  0.13262292  0.86225826  0.25026058     1.36900
C1160       C  0.14352513  0.95243914  0.25215128     0.76400
O1161       O  0.06291890  0.88897846  0.24459678    -0.62100
O1162       O  0.06854922  0.81567690  0.25359453    -0.53000
C1163       C  0.13982193  0.83484521  0.20367195     0.69100
O1164       O  0.14538251  0.87711365  0.20967358    -0.47800
C1165       C  0.16367378  0.85272756  0.29600476     0.73800
O1166       O  0.17742209  0.92692958  0.24485820    -0.59700
O1167       O  0.12140770  0.84473741  0.29079068    -0.49800
O1168       O  0.10685788  0.93134041  0.25905235    -0.56100
C1169       C  0.04244703  0.85060129  0.24874616     0.83900
O1170       O  0.14312148  0.80557938  0.22169376    -0.58000
O1171       O  0.19169321  0.85207613  0.27734497    -0.61300
In1172     In  0.40149378  0.86103955  0.24867968     1.36900
C1173       C  0.39376811  0.83307969  0.20165144     0.76400
O1174       O  0.35315590  0.92428131  0.24487363    -0.62100
O1175       O  0.42677652  0.93122539  0.25272610    -0.53000
C1176       C  0.37371247  0.85267638  0.29576070     0.69100
O1177       O  0.34486953  0.84988558  0.27752113    -0.47800
C1178       C  0.49191474  0.85017187  0.24841322     0.73800
O1179       O  0.38886342  0.80430432  0.21982364    -0.59700
O1180       O  0.47118776  0.88867481  0.24510566    -0.49800
O1181       O  0.39101732  0.87556555  0.20772021    -0.56100
C1182       C  0.38807385  0.95107344  0.24860447     0.83900
O1183       O  0.41607285  0.84798631  0.28968369    -0.58000
O1184       O  0.46596776  0.81446324  0.25168994    -0.61300
In1185     In  0.91173768  0.32130361  0.00173810     1.36900
C1186       C  0.50516903  0.31793422  0.00352722     0.76400
O1187       O  0.93194624  0.31040441  0.96230848    -0.62100
O1188       O  0.88780135  0.36977016  0.97036806    -0.53000
C1189       C  0.86140925  0.24508765  0.00156904     0.69100
O1190       O  0.84992230  0.27924106  0.98759699    -0.47800
C1191       C  0.90287432  0.36424315  0.04498358     0.73800
O1192       O  0.98086220  0.28088887  0.00334333    -0.59700
O1193       O  0.90071485  0.38707145  0.02447665    -0.49800
O1194       O  0.98180908  0.35539934  0.00324905    -0.56100
C1195       C  0.91387727  0.34831032  0.95452756     0.83900
O1196       O  0.89215605  0.25361765  0.01794795    -0.58000
O1197       O  0.89791489  0.32058219  0.04282771    -0.61300
In1198     In  0.64981054  0.32653724  0.00266235     1.36900
C1199       C  0.55648708  0.31909063  0.00337986     0.76400
O1200       O  0.66098401  0.32723739  0.04401889    -0.62100
O1201       O  0.65470080  0.39333953  0.02553766    -0.53000
C1202       C  0.69918108  0.24989764  0.00440225     0.69100
O1203       O  0.67334098  0.26278491  0.02229550    -0.47800
C1204       C  0.65333787  0.35075812  0.95464626     0.73800
O1205       O  0.58249538  0.28321524  0.00405209    -0.59700
O1206       O  0.67609822  0.37426412  0.97116053    -0.49800
O1207       O  0.57810287  0.35744527  0.00215096    -0.56100
C1208       C  0.65213356  0.37032396  0.04602501     0.83900
O1209       O  0.70956634  0.28151212  0.98863495    -0.58000
O1210       O  0.63537471  0.31290143  0.96258309    -0.61300
In1211     In  0.90589991  0.12001538  0.99490480     1.36900
C1212       C  0.49921201  0.12690548  0.99601685     0.76400
O1213       O  0.92102792  0.13135614  0.03481219    -0.62100
O1214       O  0.88098525  0.06976488  0.02549094    -0.53000
C1215       C  0.85655825  0.19673000  0.99408333     0.69100
O1216       O  0.84647438  0.16474951  0.00967599    -0.47800
C1217       C  0.90346565  0.07914631  0.95055271     0.73800
O1218       O  0.97324564  0.16292201  0.99694244    -0.59700
O1219       O  0.89565307  0.05543701  0.97047915    -0.49800
O1220       O  0.97750614  0.08870677  0.99448512    -0.56100
C1221       C  0.90363812  0.09292251  0.04220725     0.83900
O1222       O  0.88168443  0.18416227  0.97587077    -0.58000
O1223       O  0.90183624  0.12295005  0.95340258    -0.61300
In1224     In  0.64399043  0.12532521  0.99842041     1.36900
C1225       C  0.55050194  0.12807932  0.99698032     0.76400
O1226       O  0.65174887  0.12679569  0.95713594    -0.62100
O1227       O  0.65790444  0.06020595  0.97516646    -0.53000
C1228       C  0.69471219  0.20135339  0.99721522     0.69100
O1229       O  0.66323970  0.19234610  0.98135256    -0.47800
C1230       C  0.64361426  0.09902049  0.04585249     0.73800
O1231       O  0.57459800  0.16519391  0.99842979    -0.59700
O1232       O  0.66683501  0.07577755  0.02946882    -0.49800
O1233       O  0.57405298  0.09075078  0.99654458    -0.56100
C1234       C  0.65180376  0.08287637  0.95479259     0.83900
O1235       O  0.70700669  0.16751008  0.01119418    -0.58000
O1236       O  0.62774116  0.13811533  0.03837560    -0.61300
C1237       C  0.92627659  0.05889129  0.92728114     0.85300
C1238       C  0.90498487  0.01442619  0.91665275    -0.54900
C1239       C  0.93112007  0.49094034  0.89945216     0.08200
C1240       C  0.97399619  0.02397854  0.88968329     0.19200
C1241       C  0.97759042  0.04675313  0.93335504    -0.55700
C1242       C  0.50431432  0.03085193  0.91353012     0.08300
C1243       C  0.92909901  0.09232549  0.90497958    -0.55200
C1244       C  0.95342580  0.07494309  0.88504542     0.08900
H1245       H  0.87354501  0.00055837  0.92532345     0.13400
H1246       H  0.99327455  0.00984011  0.87316069    -0.00900
H1247       H  0.49135031  0.05344770  0.95194049     0.13700
H1248       H  0.91262214  0.12680352  0.90472604     0.13500
C1249       C  0.63273314  0.06102441  0.93111224     0.85300
C1250       C  0.63366679  0.09308456  0.90823123    -0.54900
C1251       C  0.61254930  0.07480514  0.88755626     0.08200
C1252       C  0.59150457  0.02392644  0.89199263     0.19200
C1253       C  0.58075424  0.04937015  0.93503531    -0.55700
C1254       C  0.55749072  0.03170884  0.91448852     0.08300
C1255       C  0.65536049  0.01565114  0.92254909    -0.55200
C1256       C  0.63205425  0.99223707  0.90343418     0.08900
H1257       H  0.64986710  0.12770188  0.90826633     0.13400
H1258       H  0.57480512  0.00884293  0.87493544    -0.00900
H1259       H  0.56399897  0.05800915  0.95269507     0.13700
H1260       H  0.68446778  0.00202202  0.93335564     0.13500
C1261       C  0.63605579  0.37054139  0.92982849     0.85300
C1262       C  0.65844229  0.41530651  0.91985079    -0.54900
C1263       C  0.63328923  0.43810242  0.90107149     0.08200
C1264       C  0.59263469  0.40555276  0.89070060     0.19200
C1265       C  0.58475912  0.38351609  0.93423249    -0.55700
C1266       C  0.56017074  0.39911024  0.91376091     0.08300
C1267       C  0.63549842  0.33688261  0.90747507    -0.55200
C1268       C  0.61361225  0.35458539  0.88665445     0.08900
H1269       H  0.68846635  0.42954878  0.92967200     0.13400
H1270       H  0.57484882  0.41965982  0.87369924    -0.00900
H1271       H  0.56976083  0.37830628  0.95271334     0.13700
H1272       H  0.65138860  0.30215213  0.90795883     0.13500
C1273       C  0.93190002  0.36939873  0.93031801     0.85300
C1274       C  0.93152581  0.33657753  0.90780426    -0.54900
C1275       C  0.95315072  0.35447485  0.88706937     0.08200
C1276       C  0.97420499  0.40518670  0.89100888     0.19200
C1277       C  0.98331577  0.38170589  0.93443748    -0.55700
C1278       C  0.00721150  0.39849653  0.91390967     0.08300
C1279       C  0.90986227  0.41483475  0.92116374    -0.55200
C1280       C  0.93333634  0.43704638  0.90153219     0.08900
H1281       H  0.91533979  0.30197153  0.90815510     0.13400
H1282       H  0.99166773  0.41953206  0.87395795    -0.00900
H1283       H  0.99879167  0.37470037  0.95262625     0.13700
H1284       H  0.88131763  0.42952153  0.93201423     0.13500
C1285       C  0.63395233  0.37098852  0.56625052     0.85300
C1286       C  0.62358331  0.42283695  0.56247911    -0.54900
C1287       C  0.60606013  0.44655731  0.58284630     0.08200
C1288       C  0.59778161  0.41341522  0.60549950     0.19200
C1289       C  0.66602205  0.36914151  0.58917093    -0.55700
C1290       C  0.64796303  0.39109656  0.60987604     0.08300
C1291       C  0.58738043  0.35028322  0.57482354    -0.55200
C1292       C  0.56511730  0.37384411  0.59440532     0.08900
H1293       H  0.63219992  0.43878520  0.54450440     0.13400
H1294       H  0.58321390  0.43101564  0.62244880    -0.00900
H1295       H  0.70034648  0.35237041  0.58901363     0.13700
H1296       H  0.57236850  0.32220357  0.56376734     0.13500
C1297       C  0.63245507  0.07575545  0.56961714     0.85300
C1298       C  0.66533839  0.07573759  0.59219293    -0.54900
C1299       C  0.64748421  0.05326876  0.61278273     0.08200
C1300       C  0.59670741  0.03203455  0.60849460     0.19200
C1301       C  0.62067090  0.02414182  0.56522823    -0.55700
C1302       C  0.60404784  0.99951180  0.58556652     0.08300
C1303       C  0.58704535  0.09743625  0.57907071    -0.55200
C1304       C  0.56414698  0.07248078  0.59783900     0.08900
H1305       H  0.70001902  0.09173570  0.59190509     0.13400
H1306       H  0.58234514  0.01413544  0.62540902    -0.00900
H1307       H  0.62775678  0.00906385  0.54688933     0.13700
H1308       H  0.57267095  0.12692883  0.56885068     0.13500
C1309       C  0.94257273  0.07365985  0.56851088     0.85300
C1310       C  0.98716675  0.09585597  0.57836163    -0.54900
C1311       C  0.50998874  0.07097585  0.59709918     0.08200
C1312       C  0.97835458  0.02921937  0.60702048     0.19200
C1313       C  0.95501489  0.02210490  0.56343555    -0.55700
C1314       C  0.97071291  0.49864060  0.58486668     0.08300
C1315       C  0.90934209  0.07199336  0.59100381    -0.55200
C1316       C  0.92718684  0.04907149  0.61130399     0.08900
H1317       H  0.50079018  0.12628154  0.56865630     0.13400
H1318       H  0.99289907  0.01127388  0.62385097    -0.00900
H1319       H  0.94664724  0.50901635  0.54648453     0.13700
H1320       H  0.87456448  0.08784634  0.59106151     0.13500
C1321       C  0.94160072  0.36863998  0.56941759     0.85300
C1322       C  0.90976741  0.36843350  0.59238762    -0.54900
C1323       C  0.92799773  0.39097280  0.61269407     0.08200
C1324       C  0.97859875  0.41268747  0.60766544     0.19200
C1325       C  0.95223551  0.42071510  0.56470613    -0.55700
C1326       C  0.96987430  0.44539130  0.58480484     0.08300
C1327       C  0.98725709  0.34708582  0.57826565    -0.55200
C1328       C  0.01102549  0.37233436  0.59643876     0.08900
H1329       H  0.87532255  0.35188668  0.59266491     0.13400
H1330       H  0.99364974  0.43047798  0.62441631    -0.00900
H1331       H  0.94321954  0.43630910  0.54684425     0.13700
H1332       H  0.00103953  0.31717223  0.56812891     0.13500
C1333       C  0.69802455  0.07272298  0.67878822     0.85300
C1334       C  0.66109627  0.07193516  0.65792860    -0.54900
C1335       C  0.67622403  0.05035826  0.63639967     0.08200
C1336       C  0.72769219  0.02936466  0.63849857     0.19200
C1337       C  0.71123348  0.02117063  0.68280852    -0.55700
C1338       C  0.72452302  0.99663782  0.66179046     0.08300
C1339       C  0.74018758  0.09555359  0.66680365    -0.55200
C1340       C  0.76082077  0.07069155  0.64733050     0.08900
H1341       H  0.62702939  0.08897186  0.65948851     0.13400
H1342       H  0.73973721  0.01187440  0.62094660    -0.00900
H1343       H  0.70718912  0.00573965  0.70127305     0.13700
H1344       H  0.75447278  0.12626175  0.67591635     0.13500
C1345       C  0.69380779  0.36913068  0.67659072     0.85300
C1346       C  0.73705348  0.34645144  0.66558781    -0.54900
C1347       C  0.75927500  0.37120367  0.64660263     0.08200
C1348       C  0.72695391  0.41279908  0.63712788     0.19200
C1349       C  0.70671049  0.42067082  0.68106536    -0.55700
C1350       C  0.72179123  0.44533867  0.66037698     0.08300
C1351       C  0.65870213  0.37032652  0.65488736    -0.55200
C1352       C  0.67561417  0.39216728  0.63384438     0.08900
H1353       H  0.75061515  0.31570979  0.67503016     0.13400
H1354       H  0.74041585  0.43046093  0.61993190    -0.00900
H1355       H  0.70076700  0.43598535  0.69941499     0.13700
H1356       H  0.62431191  0.35378677  0.65564566     0.13500
C1357       C  0.93449982  0.12555197  0.81921246     0.85300
C1358       C  0.90998951  0.16695568  0.83096418    -0.54900
C1359       C  0.93339455  0.18807187  0.85071333     0.08200
C1360       C  0.97564024  0.15611154  0.85982877     0.19200
C1361       C  0.98566926  0.14039228  0.81553528    -0.55700
C1362       C  0.00914950  0.15393653  0.83682165     0.08300
C1363       C  0.93593030  0.08844593  0.83993491    -0.55200
C1364       C  0.95658597  0.10388719  0.86157447     0.08900
H1365       H  0.87946270  0.18068773  0.82139262     0.13400
H1366       H  0.99216857  0.16856865  0.87754718    -0.00900
H1367       H  0.00187561  0.13658463  0.79723028     0.13700
H1368       H  0.91993894  0.05392493  0.83819227     0.13500
C1369       C  0.63944014  0.12547311  0.82244853     0.85300
C1370       C  0.63555131  0.08813219  0.84296253    -0.54900
C1371       C  0.61217316  0.10353460  0.86388081     0.08200
C1372       C  0.59287655  0.15584053  0.86140523     0.19200
C1373       C  0.58834623  0.13995698  0.81711530    -0.55700
C1374       C  0.56219077  0.15335873  0.83758919     0.08300
C1375       C  0.66264476  0.16640051  0.83564840    -0.55200
C1376       C  0.63504209  0.18878240  0.85324365     0.08900
H1377       H  0.65202786  0.05374617  0.84175694     0.13400
H1378       H  0.57427933  0.16828182  0.87854204    -0.00900
H1379       H  0.57434707  0.13633454  0.79829212     0.13700
H1380       H  0.69576849  0.17963402  0.82855164     0.13500
C1381       C  0.63278853  0.30731847  0.81957836     0.85300
C1382       C  0.65475663  0.26332635  0.83006481    -0.54900
C1383       C  0.63154993  0.24255233  0.85010437     0.08200
C1384       C  0.59065883  0.27521634  0.85984564     0.19200
C1385       C  0.58100525  0.29552649  0.81589814    -0.55700
C1386       C  0.55734708  0.28015439  0.83680686     0.08300
C1387       C  0.63337613  0.34251297  0.84136117    -0.55200
C1388       C  0.61201939  0.32627901  0.86276026     0.08900
H1389       H  0.68356308  0.24827018  0.81954753     0.13400
H1390       H  0.57342371  0.26204953  0.87722897    -0.00900
H1391       H  0.56485252  0.30197439  0.79781155     0.13700
H1392       H  0.65029668  0.37666469  0.84027496     0.13500
C1393       C  0.92746531  0.30596470  0.82156520     0.85300
C1394       C  0.93084650  0.34254082  0.84248254    -0.54900
C1395       C  0.95355153  0.32640867  0.86339793     0.08200
C1396       C  0.97308121  0.27464185  0.86070492     0.19200
C1397       C  0.97849891  0.29137870  0.81645356    -0.55700
C1398       C  0.00429200  0.27808306  0.83707008     0.08300
C1399       C  0.90417251  0.26435759  0.83412272    -0.55200
C1400       C  0.93096213  0.24211485  0.85228747     0.08900
H1401       H  0.91466008  0.37710872  0.84147254     0.13400
H1402       H  0.99137024  0.26192876  0.87787066    -0.00900
H1403       H  0.99280482  0.29497048  0.79769177     0.13700
H1404       H  0.87166421  0.25116617  0.82633840     0.13500
C1405       C  0.87836633  0.07148195  0.67687307     0.85300
C1406       C  0.83760029  0.09618578  0.66450388    -0.54900
C1407       C  0.81490238  0.07075667  0.64605439     0.08200
C1408       C  0.84641913  0.02790480  0.63738030     0.19200
C1409       C  0.86282176  0.02068882  0.68163372    -0.55700
C1410       C  0.84860681  0.99591051  0.66092502     0.08300
C1411       C  0.91513831  0.06798548  0.65615082    -0.55200
C1412       C  0.89884873  0.04651702  0.63494501     0.08900
H1413       H  0.82541404  0.12883029  0.67258668     0.13400
H1414       H  0.83342195  0.01049010  0.62002271    -0.00900
H1415       H  0.86665243  0.00562737  0.70018237     0.13700
H1416       H  0.94985983  0.08373827  0.65740974     0.13500
C1417       C  0.87529864  0.36731278  0.67791767     0.85300
C1418       C  0.91348206  0.37055250  0.65771196    -0.54900
C1419       C  0.89888558  0.39295894  0.63630809     0.08200
C1420       C  0.84644572  0.41203928  0.63797544     0.19200
C1421       C  0.86026324  0.41841075  0.68250172    -0.55700
C1422       C  0.84770050  0.44362071  0.66155171     0.08300
C1423       C  0.83482410  0.34362867  0.66463479    -0.55200
C1424       C  0.81353967  0.36982232  0.64598786     0.08900
H1425       H  0.94782489  0.35416946  0.65946858     0.13400
H1426       H  0.83469436  0.42991487  0.62049501    -0.00900
H1427       H  0.86285962  0.43318168  0.70121294     0.13700
H1428       H  0.82154041  0.31105366  0.67229548     0.13500
In1429     In  0.92339069  0.08231510  0.74761696     1.36900
C1430       C  0.89298685  0.09195471  0.70167818     0.76400
O1431       O  0.98772619  0.12860932  0.74465059    -0.62100
O1432       O  0.99318358  0.05465327  0.75194918    -0.53000
C1433       C  0.91513135  0.11143205  0.79402932     0.69100
O1434       O  0.91324984  0.13999545  0.77566441    -0.47800
C1435       C  0.91147960  0.99212497  0.74725376     0.73800
O1436       O  0.86489775  0.09376335  0.72025877    -0.59700
O1437       O  0.94971666  0.01229524  0.74233223    -0.49800
O1438       O  0.93551687  0.09789767  0.70699007    -0.56100
C1439       C  0.51371084  0.09320086  0.74885392     0.83900
O1440       O  0.90936090  0.06905387  0.78834472    -0.58000
O1441       O  0.87659693  0.01853883  0.75172661    -0.61300
In1442     In  0.65482714  0.08372462  0.75058523     1.36900
C1443       C  0.65882667  0.49492037  0.74756429     0.76400
O1444       O  0.58503513  0.05599941  0.75519017    -0.62100
O1445       O  0.59010129  0.12901819  0.74551607    -0.53000
C1446       C  0.66137946  0.11223904  0.79756538     0.69100
O1447       O  0.66799885  0.07010219  0.79162278    -0.47800
C1448       C  0.68460030  0.09298711  0.70407055     0.73800
O1449       O  0.70126930  0.01924759  0.75434733    -0.59700
O1450       O  0.64246567  0.10020900  0.70983979    -0.49800
O1451       O  0.62829599  0.01421734  0.74460182    -0.56100
C1452       C  0.56421845  0.09375333  0.74996712     0.83900
O1453       O  0.66374664  0.14109962  0.77931807    -0.58000
O1454       O  0.71307711  0.09358812  0.72252810    -0.61300
In1455     In  0.64677063  0.35412051  0.74798227     1.36900
C1456       C  0.67814176  0.34808049  0.70138991     0.76400
O1457       O  0.58254295  0.30780444  0.74454236    -0.62100
O1458       O  0.57705568  0.38121584  0.75339434    -0.53000
C1459       C  0.65289491  0.32223412  0.79439768     0.69100
O1460       O  0.65356980  0.29470935  0.77552583    -0.47800
C1461       C  0.65850893  0.44433908  0.74789423     0.73800
O1462       O  0.70566762  0.34462461  0.72016250    -0.59700
O1463       O  0.62082359  0.42392020  0.74210504    -0.49800
O1464       O  0.63543623  0.34246963  0.70654693    -0.56100
C1465       C  0.55653507  0.34269825  0.74967301     0.83900
O1466       O  0.66120441  0.36453224  0.78926967    -0.58000
O1467       O  0.69266686  0.41813843  0.75407296    -0.61300
In1468     In  0.91544685  0.35241520  0.75028495     1.36900
C1469       C  0.90402158  0.44292518  0.74978457     0.76400
O1470       O  0.98513293  0.37944661  0.75642904    -0.62100
O1471       O  0.98020278  0.30689508  0.74579687    -0.53000
C1472       C  0.90637342  0.32118753  0.79675202     0.69100
O1473       O  0.90215307  0.36393370  0.79139852    -0.47800
C1474       C  0.88765397  0.34597692  0.70316144     0.73800
O1475       O  0.86916848  0.41685899  0.75485607    -0.59700
O1476       O  0.92944095  0.33788905  0.70934198    -0.49800
O1477       O  0.94193255  0.42225704  0.74473142    -0.56100
C1478       C  0.50601538  0.34197669  0.75091470     0.83900
O1479       O  0.90314419  0.29352027  0.77801043    -0.58000
O1480       O  0.85839729  0.34466931  0.72127912    -0.61300
In1481     In  0.67946704  0.35407654  0.49396052     1.36900
C1482       C  0.68562381  0.44746422  0.49306168     0.76400
O1483       O  0.67815706  0.34153249  0.45265962    -0.62100
O1484       O  0.61251919  0.34688367  0.47170242    -0.53000
C1485       C  0.75479335  0.30304721  0.49348897     0.69100
O1486       O  0.74511762  0.33167242  0.47621110    -0.47800
C1487       C  0.65437733  0.35324289  0.54170173     0.73800
O1488       O  0.72196227  0.42210287  0.49194562    -0.59700
O1489       O  0.63126723  0.32975557  0.52537136    -0.49800
O1490       O  0.64769424  0.42514041  0.49438296    -0.56100
C1491       C  0.63477469  0.34913830  0.45100476     0.83900
O1492       O  0.72125505  0.29228601  0.50801782    -0.58000
O1493       O  0.69282517  0.37024038  0.53393864    -0.61300
In1494     In  0.67645453  0.09468494  0.49724488     1.36900
C1495       C  0.68552683  0.49881333  0.49347630     0.76400
O1496       O  0.69044192  0.07716131  0.53693424    -0.62100
O1497       O  0.62903425  0.11861916  0.52914446    -0.53000
C1498       C  0.75277098  0.14444466  0.49616603     0.69100
O1499       O  0.72036445  0.15502639  0.51146278    -0.47800
C1500       C  0.63293887  0.09921346  0.45374754     0.73800
O1501       O  0.71781447  0.02642958  0.49599601    -0.59700
O1502       O  0.61013074  0.10274543  0.47426713    -0.49800
O1503       O  0.64326689  0.02434580  0.49705696    -0.56100
C1504       C  0.65235006  0.09430502  0.54510701     0.83900
O1505       O  0.74137290  0.11707517  0.47864278    -0.58000
O1506       O  0.67653223  0.10507604  0.45580909    -0.61300
In1507     In  0.87776103  0.35437134  0.50231818     1.36900
C1508       C  0.87098787  0.44776594  0.50380695     0.76400
O1509       O  0.87694799  0.34366234  0.54369832    -0.62100
O1510       O  0.94354290  0.34428756  0.52533779    -0.53000
C1511       C  0.80297708  0.30231341  0.50155888     0.69100
O1512       O  0.81287163  0.32856043  0.51982431    -0.47800
C1513       C  0.90423082  0.35495713  0.45475879     0.73800
O1514       O  0.83471254  0.42225034  0.50395955    -0.59700
O1515       O  0.92739301  0.33138846  0.47107340    -0.49800
O1516       O  0.90909657  0.42558009  0.50309253    -0.56100
C1517       C  0.92070827  0.34793833  0.54583716     0.83900
O1518       O  0.83631161  0.29380961  0.48651511    -0.58000
O1519       O  0.86578235  0.37195524  0.46253335    -0.61300
In1520     In  0.87661055  0.09183833  0.50225532     1.36900
C1521       C  0.87093014  0.49914996  0.50393397     0.76400
O1522       O  0.86360167  0.07552104  0.46238703    -0.62100
O1523       O  0.92415520  0.11766210  0.47086437    -0.53000
C1524       C  0.80153178  0.14371733  0.50327868     0.69100
O1525       O  0.83403535  0.15288885  0.48781723    -0.47800
C1526       C  0.92228120  0.09538907  0.54495744     0.73800
O1527       O  0.83339863  0.02403155  0.50420736    -0.59700
O1528       O  0.94429142  0.09640291  0.52414578    -0.49800
O1529       O  0.90772311  0.02067964  0.50241868    -0.56100
C1530       C  0.90134282  0.09387630  0.45452482     0.83900
O1531       O  0.81231178  0.11629581  0.52092323    -0.58000
O1532       O  0.87927677  0.10510961  0.54345527    -0.61300
C1533       C  0.92269798  0.38497558  0.06872790     0.85300
C1534       C  0.97435899  0.39728505  0.06416633    -0.54900
C1535       C  0.49847261  0.41482672  0.08440590     0.08200
C1536       C  0.96541016  0.42181687  0.10740598     0.19200
C1537       C  0.92322741  0.35237801  0.09138104    -0.55700
C1538       C  0.94495694  0.37070223  0.11189405     0.08300
C1539       C  0.89983439  0.42972567  0.07795794    -0.55200
C1540       C  0.92405019  0.45325418  0.09665453     0.08900
H1541       H  0.49037832  0.38953067  0.04620598     0.13400
H1542       H  0.98267382  0.43675914  0.12434049    -0.00900
H1543       H  0.90728729  0.31765040  0.09139673     0.13700
H1544       H  0.86981261  0.44309786  0.06778883     0.13500
C1545       C  0.62932885  0.38955547  0.06957215     0.85300
C1546       C  0.62764425  0.35578604  0.09180066    -0.54900
C1547       C  0.60366755  0.37260545  0.11200636     0.08200
C1548       C  0.58297602  0.42365236  0.10787998     0.19200
C1549       C  0.57757858  0.40114060  0.06418317    -0.55700
C1550       C  0.55165433  0.41671855  0.08442122     0.08300
C1551       C  0.65056921  0.43412920  0.07997689    -0.55200
C1552       C  0.62426295  0.45654837  0.09824400     0.08900
H1553       H  0.64416350  0.32131194  0.09173303     0.13400
H1554       H  0.56431090  0.43749293  0.12467569    -0.00900
H1555       H  0.56305034  0.39390108  0.04579311     0.13700
H1556       H  0.68122631  0.44841924  0.07076343     0.13500
C1557       C  0.62449261  0.07816115  0.06991294     0.85300
C1558       C  0.64580363  0.03230402  0.07913747    -0.54900
C1559       C  0.62312383  0.51073953  0.09757684     0.08200
C1560       C  0.58012409  0.04163553  0.10836338     0.19200
C1561       C  0.57297640  0.06670244  0.06513859    -0.55700
C1562       C  0.54824872  0.04878259  0.08512008     0.08300
C1563       C  0.62416911  0.11046991  0.09262326    -0.55200
C1564       C  0.60137651  0.09220281  0.11292861     0.08900
H1565       H  0.67513318  0.01782038  0.06881744     0.13400
H1566       H  0.56185593  0.02706887  0.12510930    -0.00900
H1567       H  0.55802279  0.07502175  0.04698179     0.13700
H1568       H  0.64039166  0.14505798  0.09267719     0.13500
C1569       C  0.92037349  0.07317389  0.06700331     0.85300
C1570       C  0.92014237  0.10749436  0.08905222    -0.54900
C1571       C  0.94101248  0.09046737  0.11026828     0.08200
C1572       C  0.96178074  0.03929460  0.10696535     0.19200
C1573       C  0.97170987  0.05965437  0.06324345    -0.55700
C1574       C  0.99541363  0.04523580  0.08425685     0.08300
C1575       C  0.89723407  0.02903406  0.07697583    -0.55200
C1576       C  0.92098302  0.00680908  0.09643154     0.08900
H1577       H  0.90421483  0.14220070  0.08809323     0.13400
H1578       H  0.97874024  0.02553740  0.12429207    -0.00900
H1579       H  0.98755860  0.06400425  0.04487058     0.13700
H1580       H  0.86768179  0.01489966  0.06673833     0.13500
C1581       C  0.92432291  0.37299454  0.43023017     0.85300
C1582       C  0.96939845  0.35110195  0.42043290    -0.54900
C1583       C  0.49157508  0.37567508  0.40113976     0.08200
C1584       C  0.95910766  0.41656554  0.39106191     0.19200
C1585       C  0.93693340  0.42417124  0.43471946    -0.55700
C1586       C  0.95268217  0.44880597  0.41428500     0.08300
C1587       C  0.89079754  0.37341613  0.40785862    -0.55200
C1588       C  0.90826205  0.39557053  0.38709604     0.08900
H1589       H  0.48410716  0.32185874  0.43069025     0.13400
H1590       H  0.97314677  0.43455602  0.37410171    -0.00900
H1591       H  0.93130784  0.43902174  0.45324941     0.13700
H1592       H  0.85619093  0.35726277  0.40831516     0.13500
C1593       C  0.92168695  0.07693833  0.42985774     0.85300
C1594       C  0.88913790  0.07791568  0.40716444    -0.54900
C1595       C  0.90729158  0.05660226  0.38630241     0.08200
C1596       C  0.95802107  0.03483921  0.39063478     0.19200
C1597       C  0.93352104  0.02537573  0.43378126    -0.55700
C1598       C  0.95066384  0.00153308  0.41341176     0.08300
C1599       C  0.96725860  0.09898669  0.42089625    -0.55200
C1600       C  0.99028169  0.07507421  0.40174461     0.08900
H1601       H  0.85452163  0.09409424  0.40752126     0.13400
H1602       H  0.97266230  0.01746366  0.37362615    -0.00900
H1603       H  0.92629218  0.00970723  0.45191004     0.13700
H1604       H  0.98148889  0.12790503  0.43161476     0.13500
C1605       C  0.61246292  0.07796105  0.43010981     0.85300
C1606       C  0.56731242  0.09971036  0.42058716    -0.54900
C1607       C  0.54445656  0.07474964  0.40188490     0.08200
C1608       C  0.57672447  0.03381024  0.39148655     0.19200
C1609       C  0.60099863  0.02611413  0.43488247    -0.55700
C1610       C  0.58539618  0.50162579  0.41362420     0.08300
C1611       C  0.64528151  0.07742131  0.40748796    -0.55200
C1612       C  0.62752315  0.05482695  0.38709575     0.08900
H1613       H  0.55331579  0.12976596  0.43050322     0.13400
H1614       H  0.56226237  0.01597204  0.37459966    -0.00900
H1615       H  0.61071933  0.51042933  0.45187621     0.13700
H1616       H  0.67970587  0.09397859  0.40738983     0.13500
C1617       C  0.61415071  0.37111187  0.42767369     0.85300
C1618       C  0.64666931  0.37273788  0.40499426    -0.54900
C1619       C  0.62850160  0.39605282  0.38492944     0.08200
C1620       C  0.57766202  0.41678914  0.38981756     0.19200
C1621       C  0.60244325  0.42275823  0.43314888    -0.55700
C1622       C  0.58539590  0.44836182  0.41322288     0.08300
C1623       C  0.56922047  0.34935957  0.41799703    -0.55200
C1624       C  0.54569885  0.37527275  0.39996323     0.08900
H1625       H  0.68126575  0.35651531  0.40463534     0.13400
H1626       H  0.56287008  0.43523507  0.37320014    -0.00900
H1627       H  0.61048321  0.43751293  0.45136400     0.13700
H1628       H  0.55571920  0.31854771  0.42742496     0.13500
C1629       C  0.67566755  0.07917462  0.32136720     0.85300
C1630       C  0.71740066  0.10298521  0.33339034    -0.54900
C1631       C  0.73999570  0.07730967  0.35183489     0.08200
C1632       C  0.70805267  0.03491870  0.36065940     0.19200
C1633       C  0.69047780  0.02809860  0.31649359    -0.55700
C1634       C  0.70496233  0.00308035  0.33717692     0.08300
C1635       C  0.63942949  0.07604367  0.34241400    -0.55200
C1636       C  0.65583394  0.05385716  0.36338887     0.08900
H1637       H  0.73020548  0.13514752  0.32502113     0.13400
H1638       H  0.72117892  0.01723762  0.37791590    -0.00900
H1639       H  0.68617209  0.01317613  0.29794738     0.13700
H1640       H  0.60476062  0.09198326  0.34140444     0.13500
C1641       C  0.68006300  0.37392974  0.31962869     0.85300
C1642       C  0.64210259  0.37714308  0.33988943    -0.53300
C1643       C  0.65720340  0.39870153  0.36137991     0.08200
C1644       C  0.70963980  0.41718936  0.35977814     0.19200
C1645       C  0.69584524  0.42476092  0.31531323    -0.55700
C1646       C  0.70838950  0.44939600  0.33640527     0.08300
C1647       C  0.72032498  0.34928667  0.33251830    -0.55200
C1648       C  0.74178567  0.37453939  0.35148888     0.08900
H1649       H  0.60755767  0.36122280  0.33812000     0.13400
H1650       H  0.72172431  0.43450389  0.37735552    -0.00900
H1651       H  0.69336924  0.43993807  0.29671486     0.13700
H1652       H  0.73332174  0.31701169  0.32435069     0.13500
C1653       C  0.62013181  0.14027440  0.17936273     0.85300
C1654       C  0.64333447  0.18300884  0.16826160    -0.54900
C1655       C  0.62005994  0.20385443  0.14826365     0.08200
C1656       C  0.57857400  0.17159919  0.13886501     0.19200
C1657       C  0.56857191  0.15368565  0.18297364    -0.55700
C1658       C  0.54501028  0.16773193  0.16176613     0.08300
C1659       C  0.61991057  0.10418093  0.15808728    -0.55200
C1660       C  0.59895058  0.12018334  0.13661545     0.08900
H1661       H  0.67300068  0.19734501  0.17833332     0.13400
H1662       H  0.56175734  0.18434984  0.12128239    -0.00900
H1663       H  0.55235486  0.14896545  0.20119242     0.13700
H1664       H  0.63646865  0.06984142  0.15943316     0.13500
C1665       C  0.91466119  0.13940353  0.17601264     0.85300
C1666       C  0.91746490  0.10333592  0.15478618    -0.54900
C1667       C  0.94067550  0.11929512  0.13394487     0.08200
C1668       C  0.96101747  0.17085347  0.13703055     0.19200
C1669       C  0.96588373  0.15270382  0.18125377    -0.55700
C1670       C  0.99187809  0.16691710  0.16087579     0.08300
C1671       C  0.89253172  0.18205785  0.16388775    -0.55200
C1672       C  0.91926846  0.20383931  0.14549513     0.08900
H1673       H  0.90094429  0.06894102  0.15566460     0.13400
H1674       H  0.97971479  0.18359827  0.11999224    -0.00900
H1675       H  0.97998572  0.14802215  0.19996450     0.13700
H1676       H  0.86077511  0.19593143  0.17219480     0.13500
C1677       C  0.86009980  0.37350470  0.32075465     0.85300
C1678       C  0.81796556  0.34994112  0.33238740    -0.54900
C1679       C  0.79596130  0.37478113  0.35140465     0.08200
C1680       C  0.82811866  0.41670312  0.36058019     0.19200
C1681       C  0.84602782  0.42482994  0.31644012    -0.55700
C1682       C  0.83179963  0.44933531  0.33732502     0.08300
C1683       C  0.89622511  0.37530856  0.34199963    -0.55200
C1684       C  0.87988977  0.39682229  0.36329664     0.08900
H1685       H  0.80459820  0.31873558  0.32331111     0.13400
H1686       H  0.81506083  0.43408312  0.37795059    -0.00900
H1687       H  0.85052273  0.44021959  0.29800920     0.13700
H1688       H  0.93079428  0.35918473  0.34080751     0.13500
C1689       C  0.85790215  0.07882980  0.31988990     0.85300
C1690       C  0.89443456  0.07767695  0.34106059    -0.54900
C1691       C  0.87875504  0.05582724  0.36246493     0.08200
C1692       C  0.82715780  0.03545226  0.35999332     0.19200
C1693       C  0.84461640  0.02730470  0.31580767    -0.55700
C1694       C  0.83104334  0.00275686  0.33681456     0.08300
C1695       C  0.81542907  0.10172814  0.33162781    -0.55200
C1696       C  0.79422933  0.07691372  0.35090236     0.08900
H1697       H  0.92877095  0.09416072  0.33968156     0.13400
H1698       H  0.81457458  0.01792322  0.37741727    -0.00900
H1699       H  0.84916084  0.01188913  0.29735922     0.13700
H1700       H  0.80129916  0.13248723  0.32243265     0.13500
C1701       C  0.92080433  0.32066535  0.17749996     0.85300
C1702       C  0.89631508  0.27991029  0.16506184    -0.54900
C1703       C  0.92112011  0.25803508  0.14607992     0.08200
C1704       C  0.96416123  0.28956427  0.13763490     0.19200
C1705       C  0.97172493  0.30507959  0.18200911    -0.55700
C1706       C  0.99636237  0.29141992  0.16105456     0.08300
C1707       C  0.92418113  0.35792324  0.15686212    -0.55200
C1708       C  0.94599822  0.34210362  0.13556040     0.08900
H1709       H  0.86429580  0.26712970  0.17355964     0.13400
H1710       H  0.98153228  0.27682182  0.12019418    -0.00900
H1711       H  0.98708211  0.30892494  0.20050318     0.13700
H1712       H  0.90859597  0.39266359  0.15834768     0.13500
C1713       C  0.62612627  0.32008836  0.17671256     0.85300
C1714       C  0.62286391  0.35792350  0.15657629    -0.54900
C1715       C  0.60067566  0.34309377  0.13528552     0.08200
C1716       C  0.58122170  0.29070402  0.13713791     0.19200
C1717       C  0.57491937  0.30528461  0.18154618    -0.55700
C1718       C  0.54956652  0.29239176  0.16073490     0.08300
C1719       C  0.65010467  0.27974745  0.16346071    -0.55200
C1720       C  0.62326346  0.25767714  0.14546306     0.08900
H1721       H  0.63938017  0.39222699  0.15821728     0.13400
H1722       H  0.56339850  0.27874980  0.11968576    -0.00900
H1723       H  0.56017032  0.30828804  0.20023205     0.13700
H1724       H  0.68312634  0.26671851  0.17075238     0.13500
In1725     In  0.89958006  0.09205484  0.24718763     1.36900
C1726       C  0.49002084  0.10269139  0.24631668     0.76400
O1727       O  0.92610032  0.02233891  0.25185774    -0.62100
O1728       O  0.85262057  0.02777743  0.24332155    -0.53000
C1729       C  0.87159300  0.09915735  0.29452892     0.69100
O1730       O  0.91381692  0.10471150  0.28836962    -0.47800
C1731       C  0.89265320  0.12433232  0.20075046     0.73800
O1732       O  0.96393020  0.13747332  0.25168237    -0.59700
O1733       O  0.88574971  0.08177561  0.20582999    -0.49800
O1734       O  0.96942827  0.06482641  0.24116980    -0.56100
C1735       C  0.89403296  0.50248424  0.25067365     0.83900
O1736       O  0.84269584  0.10164963  0.27628192    -0.58000
O1737       O  0.89033246  0.15170687  0.21964621    -0.61300
In1738     In  0.63068942  0.09287654  0.25022625     1.36900
C1739       C  0.63977158  0.12533046  0.20451149     0.76400
O1740       O  0.67625564  0.02887592  0.24431955    -0.62100
O1741       O  0.60596821  0.02342266  0.25877455    -0.53000
C1742       C  0.66012941  0.10039602  0.29673275     0.69100
O1743       O  0.68820922  0.10575241  0.27829469    -0.47800
C1744       C  0.54053203  0.10302494  0.24685989     0.73800
O1745       O  0.63982074  0.15277585  0.22342594    -0.59700
O1746       O  0.56213877  0.06631459  0.24048317    -0.49800
O1747       O  0.64781486  0.08288443  0.20948952    -0.56100
C1748       C  0.64765017  0.50353844  0.24733936     0.83900
O1749       O  0.61730969  0.10335104  0.29122743    -0.58000
O1750       O  0.56546876  0.13699007  0.25453208    -0.61300
In1751     In  0.63789199  0.36202056  0.24784874     1.36900
C1752       C  0.64795231  0.45288711  0.24732046     0.76400
O1753       O  0.56757516  0.38878440  0.24517504    -0.62100
O1754       O  0.57375836  0.31458924  0.25118729    -0.53000
C1755       C  0.64746073  0.33322368  0.20154282     0.69100
O1756       O  0.65360180  0.37542026  0.20737497    -0.47800
C1757       C  0.66682661  0.35382248  0.29442927     0.73800
O1758       O  0.68411254  0.42697027  0.24607106    -0.59700
O1759       O  0.62474827  0.34673810  0.28857499    -0.49800
O1760       O  0.60914327  0.43197911  0.24875735    -0.56100
C1761       C  0.54726606  0.35002841  0.24831300     0.83900
O1762       O  0.64952637  0.30437341  0.21976326    -0.58000
O1763       O  0.69558084  0.35302056  0.27612366    -0.61300
In1764     In  0.90610108  0.36177938  0.24945034     1.36900
C1765       C  0.89981939  0.33450002  0.20248085     0.76400
O1766       O  0.85972497  0.42588201  0.24473747    -0.62100
O1767       O  0.93174037  0.43134145  0.25641382    -0.53000
C1768       C  0.87495888  0.35309683  0.29571326     0.69100
O1769       O  0.84713140  0.35128679  0.27699422    -0.47800
C1770       C  0.99658045  0.34992983  0.24866192     0.73800
O1771       O  0.89565622  0.30536663  0.22053152    -0.59700
O1772       O  0.97601875  0.38837060  0.24479730    -0.49800
O1773       O  0.89498078  0.37684266  0.20853873    -0.56100
C1774       C  0.89405819  0.45192194  0.25076648     0.83900
O1775       O  0.91748702  0.34672619  0.29040718    -0.58000
O1776       O  0.97040258  0.31480643  0.25300587    -0.61300
In1777     In  0.90979324  0.82252137  0.00051412     1.36900
C1778       C  0.50318211  0.81794407  0.00220604     0.76400
O1779       O  0.92808885  0.81047241  0.96093220    -0.62100
O1780       O  0.88749754  0.87218986  0.96941567    -0.53000
C1781       C  0.85960262  0.74637343  0.00001237     0.69100
O1782       O  0.85040780  0.77920816  0.98472686    -0.47800
C1783       C  0.90012539  0.86476268  0.04416998     0.73800
O1784       O  0.97844565  0.78116891  0.00150172    -0.59700
O1785       O  0.89880606  0.88800117  0.02373963    -0.49800
O1786       O  0.98025180  0.85560123  0.00249860    -0.56100
C1787       C  0.91181166  0.84927445  0.95331451     0.83900
O1788       O  0.88669436  0.75679231  0.01784591    -0.58000
O1789       O  0.89492220  0.82117327  0.04163477    -0.61300
In1790     In  0.64752019  0.82494243  0.00381265     1.36900
C1791       C  0.55443241  0.81856658  0.00250960     0.76400
O1792       O  0.65364436  0.82380453  0.04537999    -0.62100
O1793       O  0.65350999  0.89069583  0.02731936    -0.53000
C1794       C  0.69714992  0.74915736  0.00612156     0.69100
O1795       O  0.66765954  0.75998828  0.02275514    -0.47800
C1796       C  0.65292857  0.84957770  0.95615316     0.73800
O1797       O  0.57999527  0.78235236  0.00217899    -0.59700
O1798       O  0.67395535  0.87362008  0.97307961    -0.49800
O1799       O  0.57641753  0.85678983  0.00305813    -0.56100
C1800       C  0.64812822  0.86741094  0.04756859     0.83900
O1801       O  0.71035390  0.78227438  0.99188991    -0.58000
O1802       O  0.63627731  0.81076453  0.96352693    -0.61300
In1803     In  0.90682965  0.62051193  0.99504249     1.36900
C1804       C  0.50028279  0.62669389  0.99491137     0.76400
O1805       O  0.92086844  0.63386872  0.03523058    -0.62100
O1806       O  0.88067444  0.57234906  0.02630040    -0.53000
C1807       C  0.85802167  0.69755066  0.99305663     0.69100
O1808       O  0.84688240  0.66570169  0.00855120    -0.47800
C1809       C  0.90353448  0.57715274  0.95161519     0.73800
O1810       O  0.97456997  0.66288788  0.99390243    -0.59700
O1811       O  0.89958330  0.55404505  0.97199976    -0.49800
O1812       O  0.97823931  0.58863960  0.99600896    -0.56100
C1813       C  0.90337920  0.59561630  0.04292056     0.83900
O1814       O  0.88540658  0.68524984  0.97571246    -0.58000
O1815       O  0.89656864  0.62054216  0.95370877    -0.61300
In1816     In  0.64493628  0.62495296  0.99701477     1.36900
C1817       C  0.55158034  0.62767497  0.99528202     0.76400
O1818       O  0.65504383  0.62646566  0.95563806    -0.62100
O1819       O  0.65718008  0.55973681  0.97371531    -0.53000
C1820       C  0.69475673  0.70130165  0.99763019     0.69100
O1821       O  0.66413436  0.69287852  0.98119122    -0.47800
C1822       C  0.64312644  0.59944962  0.04462457     0.73800
O1823       O  0.57580635  0.66481373  0.99500911    -0.59700
O1824       O  0.66914098  0.57760256  0.02888794    -0.49800
O1825       O  0.57498600  0.59026101  0.99633597    -0.56100
C1826       C  0.65272537  0.58261261  0.95329508     0.83900
O1827       O  0.70718109  0.66674841  0.01104994    -0.58000
O1828       O  0.62470491  0.63694244  0.03647946    -0.61300
C1829       C  0.92640058  0.55753230  0.92823103     0.85300
C1830       C  0.90413760  0.51395328  0.91717934    -0.54900
C1831       C  0.93226517  0.99142647  0.89895439     0.08200
C1832       C  0.97316015  0.52315505  0.89020950     0.19200
C1833       C  0.97777143  0.54440640  0.93403494    -0.55700
C1834       C  0.50405567  0.52918392  0.91379060     0.08300
C1835       C  0.92970895  0.59173053  0.90626534    -0.55200
C1836       C  0.95367052  0.57452671  0.88617039     0.08900
H1837       H  0.87241792  0.50022974  0.92565326     0.13400
H1838       H  0.99184445  0.50917204  0.87345689    -0.00900
H1839       H  0.49201967  0.55052487  0.95258881     0.13700
H1840       H  0.91388630  0.62652812  0.90631567     0.13500
C1841       C  0.63291213  0.56133650  0.92959162     0.85300
C1842       C  0.63391582  0.59302083  0.90651169    -0.54900
C1843       C  0.61204234  0.57479127  0.88598118     0.08200
C1844       C  0.59047009  0.52414915  0.89083180     0.19200
C1845       C  0.58090097  0.55065597  0.93384964    -0.55700
C1846       C  0.55715976  0.53226834  0.91370880     0.08300
C1847       C  0.65452598  0.51537595  0.92118467    -0.55200
C1848       C  0.63104136  0.49225788  0.90202349     0.08900
H1849       H  0.65046797  0.62746365  0.90636814     0.13400
H1850       H  0.57309986  0.50895702  0.87399671    -0.00900
H1851       H  0.56452783  0.55998837  0.95150596     0.13700
H1852       H  0.68319833  0.50127937  0.93215085     0.13500
C1853       C  0.63589321  0.86958193  0.93142277     0.85300
C1854       C  0.65753878  0.91538902  0.92247485    -0.54900
C1855       C  0.63348140  0.93805373  0.90327149     0.08200
C1856       C  0.59387144  0.90530051  0.89205660     0.19200
C1857       C  0.58395060  0.88075958  0.93514935    -0.55700
C1858       C  0.56035827  0.89757479  0.91454987     0.08300
C1859       C  0.63739664  0.83689678  0.90875576    -0.55200
C1860       C  0.61580923  0.85476918  0.88791325     0.08900
H1861       H  0.68628582  0.93002243  0.93315862     0.13400
H1862       H  0.57670302  0.91967207  0.87494081    -0.00900
H1863       H  0.56796184  0.87322016  0.95306196     0.13700
H1864       H  0.65384416  0.80240557  0.90913180     0.13500
C1865       C  0.93107597  0.86984789  0.92928423     0.85300
C1866       C  0.93197017  0.83679429  0.90682153    -0.54900
C1867       C  0.95469393  0.85457764  0.88637184     0.08200
C1868       C  0.97562964  0.90530819  0.89065339     0.19200
C1869       C  0.98227384  0.88216963  0.93426155    -0.55700
C1870       C  0.00740728  0.89834172  0.91404224     0.08300
C1871       C  0.90947503  0.91503959  0.91965898    -0.55200
C1872       C  0.93420817  0.93739225  0.90057430     0.08900
H1873       H  0.91579964  0.80218655  0.90698473     0.13400
H1874       H  0.99402329  0.91960115  0.87387767    -0.00900
H1875       H  0.99663008  0.87586870  0.95270727     0.13700
H1876       H  0.87990775  0.92940040  0.92982036     0.13500
C1877       C  0.63203878  0.87113778  0.56884121     0.85300
C1878       C  0.61961642  0.92257305  0.56490337    -0.54900
C1879       C  0.60348804  0.94647109  0.58546930     0.08200
C1880       C  0.59641720  0.91301505  0.60823816     0.19200
C1881       C  0.66517144  0.87045570  0.59128938    -0.55700
C1882       C  0.64729727  0.89165000  0.61223479     0.08300
C1883       C  0.58710142  0.84862792  0.57809430    -0.55200
C1884       C  0.56429570  0.87229033  0.59733420     0.08900
H1885       H  0.62575943  0.93820567  0.54662266     0.13400
H1886       H  0.58201166  0.93026456  0.62534369    -0.00900
H1887       H  0.69981764  0.85433922  0.59075245     0.13700
H1888       H  0.57307379  0.81946406  0.56750976     0.13500
C1889       C  0.63159789  0.57555136  0.56722521     0.85300
C1890       C  0.66454967  0.57578662  0.58977129    -0.54900
C1891       C  0.64698276  0.55309749  0.61029427     0.08200
C1892       C  0.59669149  0.53139565  0.60614433     0.19200
C1893       C  0.61992877  0.52418651  0.56266805    -0.55700
C1894       C  0.60430326  0.49930259  0.58300983     0.08300
C1895       C  0.58577451  0.59658590  0.57663068    -0.55200
C1896       C  0.56386686  0.57183916  0.59595498     0.08900
H1897       H  0.69894439  0.59239666  0.58955479     0.13400
H1898       H  0.58268687  0.51312707  0.62302545    -0.00900
H1899       H  0.62591684  0.50935559  0.54412210     0.13700
H1900       H  0.57076500  0.62544900  0.56618705     0.13500
C1901       C  0.94151055  0.57542182  0.57005840     0.85300
C1902       C  0.98597099  0.59793433  0.57979940    -0.54900
C1903       C  0.50976892  0.57235328  0.59779169     0.08200
C1904       C  0.97802260  0.53061705  0.60814152     0.19200
C1905       C  0.95401070  0.52392434  0.56473959    -0.55700
C1906       C  0.97166021  0.99721742  0.58375136     0.08300
C1907       C  0.90867478  0.57359835  0.59262983    -0.55200
C1908       C  0.92678925  0.55078101  0.61284423     0.08900
H1909       H  0.49920965  0.62881767  0.57028961     0.13400
H1910       H  0.99289765  0.51254533  0.62485595    -0.00900
H1911       H  0.94751448  0.00687335  0.54527803     0.13700
H1912       H  0.87386842  0.58942040  0.59280749     0.13500
C1913       C  0.94259578  0.86739353  0.56898352     0.85300
C1914       C  0.90944695  0.86852934  0.59147197    -0.54900
C1915       C  0.92699556  0.89134864  0.61185126     0.08200
C1916       C  0.97776418  0.91238893  0.60748972     0.19200
C1917       C  0.95445618  0.91899463  0.56389406    -0.55700
C1918       C  0.97091904  0.94414338  0.58407665     0.08300
C1919       C  0.98748396  0.84566982  0.57897370    -0.55200
C1920       C  0.01017560  0.87133013  0.59754508     0.08900
H1921       H  0.87502150  0.85196707  0.59153555     0.13400
H1922       H  0.99195506  0.93054685  0.62433716    -0.00900
H1923       H  0.94727575  0.93399947  0.54565339     0.13700
H1924       H  0.00150394  0.81518855  0.56944475     0.13500
C1925       C  0.69412563  0.57506163  0.67638022     0.85300
C1926       C  0.65834094  0.57342339  0.65509596    -0.54900
C1927       C  0.67485387  0.55144321  0.63403070     0.08200
C1928       C  0.72628171  0.53081571  0.63695071     0.19200
C1929       C  0.70746670  0.52357504  0.68096869    -0.55700
C1930       C  0.72185431  0.49858582  0.66028686     0.08300
C1931       C  0.73661034  0.59806351  0.66471387    -0.55200
C1932       C  0.75885656  0.57235461  0.64609199     0.08900
H1933       H  0.62398204  0.59005954  0.65603802     0.13400
H1934       H  0.73925607  0.51307513  0.61966752    -0.00900
H1935       H  0.70245400  0.50848334  0.69945068     0.13700
H1936       H  0.74980539  0.62976659  0.67338088     0.13500
C1937       C  0.69683801  0.86727843  0.67813680     0.85300
C1938       C  0.73850832  0.84372599  0.66593411    -0.54900
C1939       C  0.76003752  0.86890879  0.64690984     0.08200
C1940       C  0.72785385  0.91131296  0.63834185     0.19200
C1941       C  0.71136798  0.91842085  0.68266596    -0.55700
C1942       C  0.72499406  0.94339529  0.66179153     0.08300
C1943       C  0.66004147  0.86995819  0.65720109    -0.55200
C1944       C  0.67588263  0.89203990  0.63595185     0.08900
H1945       H  0.75204331  0.81219322  0.67461412     0.13400
H1946       H  0.74049795  0.92906567  0.62099415    -0.00900
H1947       H  0.70740000  0.93337197  0.70125394     0.13700
H1948       H  0.62544188  0.85400585  0.65853806     0.13500
C1949       C  0.93132263  0.62602640  0.82143158     0.85300
C1950       C  0.90683944  0.66615159  0.83463142    -0.54900
C1951       C  0.93297115  0.68819787  0.85304750     0.08200
C1952       C  0.97565563  0.65606128  0.86114118     0.19200
C1953       C  0.98201550  0.64188896  0.81663005    -0.55700
C1954       C  0.00715986  0.65504665  0.83748660     0.08300
C1955       C  0.93529382  0.58828082  0.84157010    -0.55200
C1956       C  0.95707327  0.60354816  0.86287827     0.08900
H1957       H  0.87393261  0.67878701  0.82704174     0.13400
H1958       H  0.99338145  0.66817742  0.87859455    -0.00900
H1959       H  0.99660493  0.63905830  0.79790646     0.13700
H1960       H  0.91927087  0.55374946  0.83996653     0.13500
C1961       C  0.63502389  0.62611054  0.82016621     0.85300
C1962       C  0.63176066  0.58836266  0.84064717    -0.54900
C1963       C  0.61064604  0.60381046  0.86226027     0.08200
C1964       C  0.59269147  0.65655444  0.86049807     0.19200
C1965       C  0.58439220  0.64244167  0.81605812    -0.55700
C1966       C  0.56020990  0.65560822  0.83718846     0.08300
C1967       C  0.66011972  0.66645842  0.83276611    -0.55200
C1968       C  0.63552568  0.68822533  0.85192977     0.08900
H1969       H  0.64708680  0.55353774  0.83881712     0.13400
H1970       H  0.57565124  0.66907252  0.87807755    -0.00900
H1971       H  0.56896033  0.63987094  0.79751893     0.13700
H1972       H  0.69198744  0.67938291  0.82415025     0.13500
C1973       C  0.63887311  0.80716762  0.82162589     0.85300
C1974       C  0.66167121  0.76444086  0.83327131    -0.54900
C1975       C  0.63608256  0.74247416  0.85202629     0.08200
C1976       C  0.59437351  0.77507686  0.86103239     0.19200
C1977       C  0.58745415  0.79386973  0.81694564    -0.55700
C1978       C  0.56237396  0.77921765  0.83755625     0.08300
C1979       C  0.63698274  0.84298159  0.84299127    -0.55200
C1980       C  0.61479701  0.82662126  0.86405624     0.08900
H1981       H  0.69305603  0.75078715  0.82447580     0.13400
H1982       H  0.57643492  0.76208488  0.87824956    -0.00900
H1983       H  0.57248956  0.79903804  0.79845939     0.13700
H1984       H  0.65352261  0.87736073  0.84205804     0.13500
C1985       C  0.93315866  0.80538985  0.82039672     0.85300
C1986       C  0.93472724  0.84199432  0.84140538    -0.54900
C1987       C  0.95653086  0.82627622  0.86272096     0.08200
C1988       C  0.97649857  0.77460709  0.86044747     0.19200
C1989       C  0.98459983  0.79148857  0.81618744    -0.55700
C1990       C  0.00916503  0.77796865  0.83719305     0.08300
C1991       C  0.90989483  0.76340183  0.83225016    -0.55200
C1992       C  0.93447580  0.74226036  0.85162735     0.08900
H1993       H  0.91821021  0.87635690  0.84008126     0.13400
H1994       H  0.99393429  0.76208706  0.87791058    -0.00900
H1995       H  0.00004863  0.79566851  0.79773216     0.13700
H1996       H  0.87899178  0.74956815  0.82309373     0.13500
C1997       C  0.87523800  0.57243183  0.67829332     0.85300
C1998       C  0.83420235  0.59630247  0.66587261    -0.54900
C1999       C  0.81302163  0.57138241  0.64673675     0.08200
C2000       C  0.84547063  0.52902840  0.63823884     0.19200
C2001       C  0.86074752  0.52127022  0.68262954    -0.55700
C2002       C  0.84746690  0.49670764  0.66165331     0.08300
C2003       C  0.91277104  0.57013470  0.65778972    -0.55200
C2004       C  0.89777837  0.54824762  0.63638431     0.08900
H2005       H  0.82085821  0.62803528  0.67444481     0.13400
H2006       H  0.83328570  0.51163110  0.62070972    -0.00900
H2007       H  0.86471299  0.50586640  0.70111528     0.13700
H2008       H  0.94709200  0.58659956  0.65942236     0.13500
C2009       C  0.87739639  0.86695702  0.67744155     0.85300
C2010       C  0.91438299  0.87044613  0.65670435    -0.54900
C2011       C  0.89844693  0.89239915  0.63550275     0.08200
C2012       C  0.84608645  0.91086062  0.63773689     0.19200
C2013       C  0.86184393  0.91790357  0.68208780    -0.55700
C2014       C  0.84813314  0.94277693  0.66117586     0.08300
C2015       C  0.83636983  0.84273265  0.66492833    -0.55200
C2016       C  0.81422223  0.86828593  0.64626381     0.08900
H2017       H  0.94912764  0.85476181  0.65804423     0.13400
H2018       H  0.83337101  0.92839141  0.62034732    -0.00900
H2019       H  0.86532297  0.93290911  0.70067747     0.13700
H2020       H  0.82341597  0.81057226  0.67321270     0.13500
In2021     In  0.91641340  0.58397070  0.74976460     1.36900
C2022       C  0.88831183  0.59303273  0.70333401     0.76400
O2023       O  0.98001485  0.63175513  0.74810375    -0.62100
O2024       O  0.98632677  0.55659203  0.74859734    -0.53000
C2025       C  0.91023802  0.61218940  0.79658331     0.69100
O2026       O  0.90654353  0.64104812  0.77842869    -0.47800
C2027       C  0.90435043  0.49354641  0.75014352     0.73800
O2028       O  0.85921762  0.59516230  0.72149525    -0.59700
O2029       O  0.94339870  0.51374377  0.74791884    -0.49800
O2030       O  0.93046650  0.59895066  0.70927375    -0.56100
C2031       C  0.50648442  0.59602321  0.74778477     0.83900
O2032       O  0.90525930  0.56980839  0.79068997    -0.58000
O2033       O  0.86878255  0.52006228  0.75256912    -0.61300
In2034     In  0.64743676  0.58542675  0.74739593     1.36900
C2035       C  0.66625408  0.99340079  0.74927923     0.76400
O2036       O  0.57763408  0.55733964  0.74702993    -0.62100
O2037       O  0.58296746  0.63249140  0.74683036    -0.53000
C2038       C  0.65440816  0.61244881  0.79474986     0.69100
O2039       O  0.65833329  0.57017222  0.78841039    -0.47800
C2040       C  0.67907940  0.59566154  0.70127920     0.73800
O2041       O  0.69354362  0.52105119  0.75281913    -0.59700
O2042       O  0.63653980  0.60196432  0.70647604    -0.49800
O2043       O  0.62112295  0.51552637  0.74207743    -0.56100
C2044       C  0.55697276  0.59634895  0.74708726     0.83900
O2045       O  0.65753827  0.64164769  0.77668174    -0.58000
O2046       O  0.70659455  0.59685411  0.72010184    -0.61300
In2047     In  0.65305269  0.85284345  0.75006911     1.36900
C2048       C  0.68257761  0.84624196  0.70319693     0.76400
O2049       O  0.58899359  0.80666413  0.74545379    -0.62100
O2050       O  0.58301907  0.87920968  0.75604851    -0.53000
C2051       C  0.65996656  0.82227275  0.79674189     0.69100
O2052       O  0.66318903  0.79439108  0.77808065    -0.47800
C2053       C  0.66575562  0.94285661  0.74927588     0.73800
O2054       O  0.71099086  0.84320442  0.72163313    -0.59700
O2055       O  0.62753408  0.92275382  0.74426702    -0.49800
O2056       O  0.64016765  0.84031426  0.70890214    -0.56100
C2057       C  0.56267452  0.84112497  0.75094830     0.83900
O2058       O  0.66525449  0.86491442  0.79134806    -0.58000
O2059       O  0.70016380  0.91640632  0.75469143    -0.61300
In2060     In  0.92148899  0.85127593  0.74932188     1.36900
C2061       C  0.91126552  0.94166461  0.74829425     0.76400
O2062       O  0.99083684  0.87757616  0.75714725    -0.62100
O2063       O  0.98652506  0.80631415  0.74415172    -0.53000
C2064       C  0.91238970  0.81957491  0.79533390     0.69100
O2065       O  0.90368540  0.86173544  0.79011301    -0.47800
C2066       C  0.89208833  0.84583674  0.70236939     0.73800
O2067       O  0.87541392  0.91601818  0.75165928    -0.59700
O2068       O  0.93462140  0.84054583  0.70802884    -0.49800
O2069       O  0.94991205  0.92073446  0.74598425    -0.56100
C2070       C  0.51204363  0.84046823  0.75096271     0.83900
O2071       O  0.91215590  0.79180937  0.77657537    -0.58000
O2072       O  0.86375257  0.84187530  0.72077138    -0.61300
In2073     In  0.67600564  0.85722424  0.49657117     1.36900
C2074       C  0.68075231  0.95044923  0.49631911     0.76400
O2075       O  0.67729167  0.84760215  0.45529314    -0.62100
O2076       O  0.61039617  0.84605285  0.47327080    -0.53000
C2077       C  0.75245916  0.80789607  0.49506174     0.69100
O2078       O  0.74210048  0.83806047  0.47869594    -0.47800
C2079       C  0.65177414  0.85405551  0.54419160     0.73800
O2080       O  0.71726760  0.92539576  0.49629186    -0.59700
O2081       O  0.62789394  0.83186004  0.52766306    -0.49800
O2082       O  0.64277577  0.92797278  0.49656893    -0.56100
C2083       C  0.63350230  0.85072316  0.45292000     0.83900
O2084       O  0.71966107  0.79596698  0.50982517    -0.58000
O2085       O  0.69008393  0.87129776  0.53649057    -0.61300
In2086     In  0.67887105  0.59228152  0.49558752     1.36900
C2087       C  0.68105500  0.00163377  0.49635862     0.76400
O2088       O  0.69062712  0.57572983  0.53538410    -0.62100
O2089       O  0.62996957  0.61749528  0.52659655    -0.53000
C2090       C  0.75468069  0.64245356  0.49620189     0.69100
O2091       O  0.72099980  0.65286364  0.51070351    -0.47800
C2092       C  0.63387596  0.59915435  0.45294128     0.73800
O2093       O  0.72171478  0.52434134  0.49270167    -0.59700
O2094       O  0.61176048  0.59888139  0.47368315    -0.49800
O2095       O  0.64755697  0.52097156  0.49520059    -0.56100
C2096       C  0.65240394  0.59349465  0.54295509     0.83900
O2097       O  0.74535261  0.61408768  0.47872980    -0.58000
O2098       O  0.67685958  0.60876615  0.45464215    -0.61300
In2099     In  0.87762486  0.85380620  0.50209503     1.36900
C2100       C  0.86999253  0.94717383  0.50401187     0.76400
O2101       O  0.87834642  0.84089740  0.54329219    -0.62100
O2102       O  0.94448940  0.84392087  0.52459333    -0.53000
C2103       C  0.80148988  0.80323737  0.50118869     0.69100
O2104       O  0.81528634  0.82324203  0.52092341    -0.47800
C2105       C  0.90436920  0.85480051  0.45468629     0.73800
O2106       O  0.83399615  0.92136786  0.50497369    -0.59700
O2107       O  0.92736387  0.83077183  0.47092073    -0.49800
O2108       O  0.90815243  0.92528192  0.50266561    -0.56100
C2109       C  0.92201378  0.84642621  0.54527037     0.83900
O2110       O  0.83206978  0.79871768  0.48416382    -0.58000
O2111       O  0.86601778  0.87192739  0.46246460    -0.61300
In2112     In  0.87754884  0.59252761  0.50334647     1.36900
C2113       C  0.86971784  0.99852613  0.50373555     0.76400
O2114       O  0.86446160  0.57750094  0.46333600    -0.62100
O2115       O  0.92677989  0.61663816  0.47236035    -0.53000
C2116       C  0.80297091  0.64468966  0.50397058     0.69100
O2117       O  0.83548655  0.65325132  0.48845602    -0.47800
C2118       C  0.92067650  0.59677737  0.54668353     0.73800
O2119       O  0.83459264  0.52463719  0.50417727    -0.59700
O2120       O  0.94358119  0.60171991  0.52626557    -0.49800
O2121       O  0.90900447  0.52135731  0.50339802    -0.56100
C2122       C  0.90313096  0.59430932  0.45575052     0.83900
O2123       O  0.81405488  0.61899337  0.52226386    -0.58000
O2124       O  0.87688808  0.60091200  0.54464843    -0.61300
C2125       C  0.91942083  0.88485140  0.06833828     0.85300
C2126       C  0.97111653  0.89732428  0.06410336    -0.54900
C2127       C  0.49493416  0.91417342  0.08460782     0.08200
C2128       C  0.96172424  0.92055924  0.10752322     0.19200
C2129       C  0.91965954  0.85158365  0.09076449    -0.55700
C2130       C  0.94115898  0.86934242  0.11152676     0.08300
C2131       C  0.89655464  0.92942224  0.07795753    -0.55200
C2132       C  0.92079559  0.95254937  0.09687915     0.08900
H2133       H  0.48721198  0.89042492  0.04604988     0.13400
H2134       H  0.97879433  0.93496388  0.12464386    -0.00900
H2135       H  0.90361042  0.81690797  0.09046357     0.13700
H2136       H  0.86665781  0.94308316  0.06779779     0.13500
C2137       C  0.62549248  0.88762142  0.07082636     0.85300
C2138       C  0.62306953  0.85470138  0.09338423    -0.54900
C2139       C  0.59910044  0.87262188  0.11333176     0.08200
C2140       C  0.57897385  0.92360586  0.10853815     0.19200
C2141       C  0.57409749  0.89958331  0.06503325    -0.55700
C2142       C  0.54802434  0.91611956  0.08494501     0.08300
C2143       C  0.64711341  0.93231954  0.08082049    -0.55200
C2144       C  0.62091267  0.95551465  0.09882254     0.08900
H2145       H  0.63911900  0.82001541  0.09371145     0.13400
H2146       H  0.56013288  0.93830364  0.12506176    -0.00900
H2147       H  0.55982282  0.89152651  0.04670285     0.13700
H2148       H  0.67804041  0.94601929  0.07159816     0.13500
C2149       C  0.62480258  0.57855662  0.06887068     0.85300
C2150       C  0.64758099  0.53382654  0.07859106    -0.54900
C2151       C  0.62090832  0.00958090  0.09807100     0.08200
C2152       C  0.58149171  0.54216685  0.10769105     0.19200
C2153       C  0.57381370  0.56499313  0.06415272    -0.55700
C2154       C  0.54931053  0.54824856  0.08447726     0.08300
C2155       C  0.62341203  0.61167139  0.09127359    -0.55200
C2156       C  0.60144532  0.59336121  0.11182830     0.08900
H2157       H  0.67753907  0.52012852  0.06850744     0.13400
H2158       H  0.56369127  0.52760644  0.12458303    -0.00900
H2159       H  0.55902440  0.57097523  0.04572337     0.13700
H2160       H  0.63885921  0.64661553  0.09103253     0.13500
C2161       C  0.92062355  0.57542232  0.06767744     0.85300
C2162       C  0.91969189  0.60823692  0.09038665    -0.54900
C2163       C  0.94131123  0.59035715  0.11126180     0.08200
C2164       C  0.96325717  0.53996862  0.10700627     0.19200
C2165       C  0.97227734  0.56374268  0.06369280    -0.55700
C2166       C  0.99632189  0.54751263  0.08422417     0.08300
C2167       C  0.89903971  0.52975172  0.07686298    -0.55200
C2168       C  0.92325875  0.50735678  0.09615119     0.08900
H2169       H  0.90326640  0.64273564  0.09004043     0.13400
H2170       H  0.98080595  0.52562777  0.12402023    -0.00900
H2171       H  0.98786175  0.57049364  0.04552687     0.13700
H2172       H  0.87022699  0.51503621  0.06626536     0.13500
C2173       C  0.92427466  0.87276156  0.43012439     0.85300
C2174       C  0.96892961  0.85034083  0.42031469    -0.54900
C2175       C  0.49131815  0.87466860  0.40115460     0.08200
C2176       C  0.95908323  0.91572683  0.39080268     0.19200
C2177       C  0.93718381  0.92408500  0.43438068    -0.55700
C2178       C  0.95259047  0.94853435  0.41372576     0.08300
C2179       C  0.89060655  0.87309665  0.40782588    -0.55200
C2180       C  0.90812162  0.89502652  0.38700572     0.08900
H2181       H  0.48315464  0.82072307  0.43051863     0.13400
H2182       H  0.97314460  0.93335596  0.37373559    -0.00900
H2183       H  0.93179391  0.93911491  0.45287594     0.13700
H2184       H  0.85588303  0.85719036  0.40838449     0.13500
C2185       C  0.92321030  0.57692830  0.43108796     0.85300
C2186       C  0.88999164  0.57719494  0.40862815    -0.54900
C2187       C  0.90783446  0.55555026  0.38779679     0.08200
C2188       C  0.95875258  0.53460547  0.39171600     0.19200
C2189       C  0.93559590  0.52550658  0.43511051    -0.55700
C2190       C  0.95214211  0.50163368  0.41455226     0.08300
C2191       C  0.96842603  0.59914640  0.42164563    -0.55200
C2192       C  0.99096629  0.57512104  0.40232434     0.08900
H2193       H  0.85530133  0.59319885  0.40909130     0.13400
H2194       H  0.97304419  0.51719950  0.37463477    -0.00900
H2195       H  0.92887854  0.50989372  0.45335168     0.13700
H2196       H  0.98277741  0.62831756  0.43210567     0.13500
C2197       C  0.61367787  0.57818204  0.42926964     0.85300
C2198       C  0.56843651  0.60003898  0.42009534    -0.54900
C2199       C  0.54516391  0.57523413  0.40155914     0.08200
C2200       C  0.57741076  0.53445215  0.39072960     0.19200
C2201       C  0.60245856  0.52616533  0.43391644    -0.55700
C2202       C  0.58412204  0.00138800  0.41457319     0.08300
C2203       C  0.64617510  0.57807177  0.40652836    -0.55200
C2204       C  0.62819617  0.55563862  0.38611804     0.08900
H2205       H  0.55461891  0.62993954  0.43021485     0.13400
H2206       H  0.56266761  0.51682195  0.37385559    -0.00900
H2207       H  0.60913206  0.01065044  0.45293166     0.13700
H2208       H  0.68070514  0.59443300  0.40643102     0.13500
C2209       C  0.61287926  0.87159458  0.42932186     0.85300
C2210       C  0.64616231  0.87332530  0.40691157    -0.54900
C2211       C  0.62838547  0.89612400  0.38659599     0.08200
C2212       C  0.57727249  0.91637635  0.39093261     0.19200
C2213       C  0.60020186  0.92299234  0.43452837    -0.55700
C2214       C  0.58384192  0.94821082  0.41434586     0.08300
C2215       C  0.56850316  0.84919985  0.41928222    -0.55200
C2216       C  0.54544807  0.87464693  0.40081706     0.08900
H2217       H  0.68082716  0.85719769  0.40686198     0.13400
H2218       H  0.56285714  0.93447280  0.37411354    -0.00900
H2219       H  0.60712340  0.93794257  0.45284970     0.13700
H2220       H  0.55494588  0.81846524  0.42876885     0.13500
C2221       C  0.67840048  0.57840201  0.32043131     0.85300
C2222       C  0.72013783  0.60170188  0.33265913    -0.54900
C2223       C  0.74157182  0.57639161  0.35162774     0.08200
C2224       C  0.70905232  0.53431983  0.36019037     0.19200
C2225       C  0.69247231  0.52720727  0.31587903    -0.55700
C2226       C  0.70659138  0.50241687  0.33666696     0.08300
C2227       C  0.64144689  0.57611561  0.34122287    -0.55200
C2228       C  0.65691503  0.55389633  0.36245480     0.08900
H2229       H  0.73372871  0.63327458  0.32404284     0.13400
H2230       H  0.72147876  0.51656698  0.37757524    -0.00900
H2231       H  0.68799762  0.51216452  0.29735911     0.13700
H2232       H  0.60708771  0.59263085  0.33986288     0.13500
C2233       C  0.67775102  0.87366670  0.32088734     0.85300
C2234       C  0.64117555  0.87562349  0.34182831    -0.53300
C2235       C  0.65689511  0.89784313  0.36297546     0.08200
C2236       C  0.70878329  0.91771680  0.36052308     0.19200
C2237       C  0.69149950  0.92506973  0.31635081    -0.55700
C2238       C  0.70539521  0.94992212  0.33713589     0.08300
C2239       C  0.71962622  0.85038963  0.33286865    -0.55200
C2240       C  0.74136384  0.87577186  0.35167857     0.08900
H2241       H  0.60687018  0.85901175  0.34061537     0.13400
H2242       H  0.72139875  0.93532447  0.37790816    -0.00900
H2243       H  0.68702116  0.94032377  0.29789448     0.13700
H2244       H  0.73290533  0.81866431  0.32426379     0.13500
C2245       C  0.62400310  0.64191816  0.17772892     0.85300
C2246       C  0.64674785  0.68412970  0.16572345    -0.54900
C2247       C  0.62097924  0.70559822  0.14690307     0.08200
C2248       C  0.57931851  0.67279021  0.13816861     0.19200
C2249       C  0.57250167  0.65526137  0.18237235    -0.55700
C2250       C  0.54729895  0.66880799  0.16157787     0.08300
C2251       C  0.62217972  0.60553474  0.15665338    -0.55200
C2252       C  0.59977997  0.62135539  0.13555782     0.08900
H2253       H  0.67830669  0.69784368  0.17430564     0.13400
H2254       H  0.56140091  0.68535136  0.12086211    -0.00900
H2255       H  0.55752833  0.65046957  0.20090381     0.13700
H2256       H  0.63902436  0.57130216  0.15774151     0.13500
C2257       C  0.91854371  0.63803001  0.17792184     0.85300
C2258       C  0.92067030  0.60187332  0.15658488    -0.54900
C2259       C  0.94218918  0.61834845  0.13526623     0.08200
C2260       C  0.96169988  0.67014382  0.13804143     0.19200
C2261       C  0.96969772  0.65232536  0.18225694    -0.55700
C2262       C  0.99410361  0.66698191  0.16145136     0.08300
C2263       C  0.89496712  0.68025962  0.16629321    -0.55200
C2264       C  0.91939217  0.70188560  0.14697227     0.08900
H2265       H  0.90475488  0.56722956  0.15774339     0.13400
H2266       H  0.97916809  0.68324478  0.12071303    -0.00900
H2267       H  0.98504464  0.64795557  0.20072348     0.13700
H2268       H  0.86408974  0.69394958  0.17558770     0.13500
C2269       C  0.85967662  0.87327628  0.32088595     0.85300
C2270       C  0.81732563  0.85035018  0.33267285    -0.54900
C2271       C  0.79553786  0.87571150  0.35156316     0.08200
C2272       C  0.82817048  0.91732735  0.36056524     0.19200
C2273       C  0.84634973  0.92467797  0.31643819    -0.55700
C2274       C  0.83207032  0.94956512  0.33715328     0.08300
C2275       C  0.89583434  0.87476921  0.34205665    -0.55200
C2276       C  0.87972205  0.89668079  0.36329100     0.08900
H2277       H  0.80393556  0.81885747  0.32391456     0.13400
H2278       H  0.81540103  0.93509589  0.37788736    -0.00900
H2279       H  0.85117438  0.93973584  0.29793091     0.13700
H2280       H  0.93012232  0.85807378  0.34090608     0.13500
C2281       C  0.86042019  0.57886273  0.32161088     0.85300
C2282       C  0.89629643  0.57651389  0.34290843    -0.54900
C2283       C  0.87973805  0.55450969  0.36397683     0.08200
C2284       C  0.82803445  0.53455244  0.36099532     0.19200
C2285       C  0.84652585  0.52762008  0.31687589    -0.55700
C2286       C  0.83200742  0.50256020  0.33752900     0.08300
C2287       C  0.81809322  0.60211182  0.33337545    -0.55200
C2288       C  0.79578596  0.57655588  0.35201049     0.08900
H2289       H  0.93082473  0.59274710  0.34195583     0.13400
H2290       H  0.81489445  0.51670984  0.37820990    -0.00900
H2291       H  0.85142344  0.51272021  0.29836310     0.13700
H2292       H  0.80494156  0.63386135  0.32473613     0.13500
C2293       C  0.91502719  0.81884915  0.17681145     0.85300
C2294       C  0.89122774  0.77799133  0.16392215    -0.54900
C2295       C  0.91773411  0.75594397  0.14564568     0.08200
C2296       C  0.96039404  0.78817441  0.13750787     0.19200
C2297       C  0.96585224  0.80358026  0.18191233    -0.55700
C2298       C  0.99152464  0.79030020  0.16127138     0.08300
C2299       C  0.91901027  0.85611480  0.15622461    -0.55200
C2300       C  0.94165238  0.84049145  0.13514950     0.08900
H2301       H  0.85860875  0.76491020  0.17165389     0.13400
H2302       H  0.97857507  0.77557454  0.12027611    -0.00900
H2303       H  0.98032892  0.80724105  0.20062156     0.13700
H2304       H  0.90312443  0.89076637  0.15754765     0.13500
C2305       C  0.61936119  0.82143650  0.17864737     0.85300
C2306       C  0.61591930  0.85929644  0.15843489    -0.54900
C2307       C  0.59517410  0.84388750  0.13681757     0.08200
C2308       C  0.57720410  0.79115553  0.13833876     0.19200
C2309       C  0.56864132  0.80502364  0.18282634    -0.55700
C2310       C  0.54461879  0.79165403  0.16164701     0.08300
C2311       C  0.64470992  0.78155889  0.16586295    -0.55200
C2312       C  0.62016223  0.75970886  0.14679931     0.08900
H2313       H  0.63153575  0.89398391  0.16026799     0.13400
H2314       H  0.56039999  0.77887717  0.12066198    -0.00900
H2315       H  0.55313426  0.80737867  0.20136957     0.13700
H2316       H  0.67700071  0.76906629  0.17421514     0.13500
In2317     In  0.90545566  0.59279000  0.24985169     1.36900
C2318       C  0.49564037  0.60482105  0.24875187     0.76400
O2319       O  0.93202151  0.52307520  0.25555071    -0.62100
O2320       O  0.85924316  0.52852489  0.24538654    -0.53000
C2321       C  0.87572708  0.59981537  0.29674997     0.69100
O2322       O  0.91844478  0.60311426  0.29111634    -0.47800
C2323       C  0.89816094  0.62337079  0.20311505     0.73800
O2324       O  0.96953301  0.63879494  0.25522838    -0.59700
O2325       O  0.89135684  0.58098223  0.20859793    -0.49800
O2326       O  0.97515810  0.56718060  0.24287392    -0.56100
C2327       C  0.88774354  0.00172625  0.24796887     0.83900
O2328       O  0.84766386  0.60446868  0.27824911    -0.58000
O2329       O  0.89645745  0.65136182  0.22179126    -0.61300
In2330     In  0.63664912  0.59423664  0.24834745     1.36900
C2331       C  0.64528027  0.62739371  0.20257299     0.76400
O2332       O  0.68347886  0.52981409  0.24582167    -0.62100
O2333       O  0.60863734  0.52402665  0.24908828    -0.53000
C2334       C  0.66481868  0.59933048  0.29540242     0.69100
O2335       O  0.69372308  0.60193999  0.27718743    -0.47800
C2336       C  0.54620136  0.60521326  0.24837158     0.73800
O2337       O  0.64565387  0.65463635  0.22153281    -0.59700
O2338       O  0.56696929  0.56797218  0.24211812    -0.49800
O2339       O  0.65389359  0.58514620  0.20747291    -0.56100
C2340       C  0.64298909  0.00290126  0.25193808     0.83900
O2341       O  0.62261602  0.60563583  0.28947943    -0.58000
O2342       O  0.57213413  0.63955262  0.25451989    -0.61300
In2343     In  0.63262820  0.86222804  0.25028493     1.36900
C2344       C  0.64353171  0.95240310  0.25218431     0.76400
O2345       O  0.56291521  0.88894877  0.24465748    -0.62100
O2346       O  0.56856642  0.81561879  0.25358302    -0.53000
C2347       C  0.63980851  0.83486197  0.20368602     0.69100
O2348       O  0.64528899  0.87713662  0.20969641    -0.47800
C2349       C  0.66370151  0.85266639  0.29602027     0.73800
O2350       O  0.67742634  0.92689544  0.24488615    -0.59700
O2351       O  0.62143877  0.84464967  0.29080795    -0.49800
O2352       O  0.60687319  0.93130397  0.25909948    -0.56100
C2353       C  0.54245446  0.85054914  0.24876201     0.83900
O2354       O  0.64317909  0.80558800  0.22170060    -0.58000
O2355       O  0.69171716  0.85204307  0.27735868    -0.61300
In2356     In  0.90149041  0.86111248  0.24869441     1.36900
C2357       C  0.89376972  0.83313980  0.20166965     0.76400
O2358       O  0.85314565  0.92434123  0.24485610    -0.62100
O2359       O  0.92673600  0.93130067  0.25278783    -0.53000
C2360       C  0.87369791  0.85272783  0.29576267     0.69100
O2361       O  0.84485487  0.84998045  0.27752160    -0.47800
C2362       C  0.99190765  0.85024277  0.24842007     0.73800
O2363       O  0.88882692  0.80437656  0.21984435    -0.59700
O2364       O  0.97118559  0.88875342  0.24512735    -0.49800
O2365       O  0.89108224  0.87563181  0.20773434    -0.56100
C2366       C  0.88804317  0.95114005  0.24862613     0.83900
O2367       O  0.91605563  0.84799067  0.28969088    -0.58000
O2368       O  0.96595792  0.81453666  0.25169653    -0.61300
loop_ 
_geom_bond_atom_site_label_1 
_geom_bond_atom_site_label_2 
_geom_bond_distance 
_geom_bond_site_symmetry_2 
_ccdc_geom_bond_type 
In1           O3   2.189   1_554  S
In1           O4   2.264   1_554  S
In1          O12   2.181       .  S
In1           O6   2.255   1_554  S
In1           O8   2.278       .  S
In1           O9   2.247       .  S
In1          O10   2.218       .  S
In1          O13   2.213       .  S
C2           C15   1.460       .  S
C2         O1192   1.261   1_455  A
C2         O1194   1.255   1_455  A
O3           C11   1.263       .  A
O4           C11   1.275       .  A
C5           C31   1.438   1_554  S
C5           O12   1.256       .  A
C5            O6   1.264   1_554  A
C7            O9   1.268       .  A
C7           O13   1.255       .  A
C7          C349   1.500       .  S
O8         C1186   1.261       .  A
O10        C1186   1.255       .  A
C11          C89   1.506       .  S
In14         O16   2.216       .  S
In14         O17   2.258       .  S
In14         O25   2.253   1_554  S
In14         O19   2.195       .  S
In14         O21   2.278       .  S
In14         O22   2.278   1_554  S
In14         O23   2.220       .  S
In14         O26   2.199   1_554  S
C15          O21   1.260       .  A
C15          O23   1.254       .  A
O16          C24   1.255       .  A
O17          C24   1.270       .  A
C18          C44   1.438   1_554  S
C18          O25   1.263   1_554  A
C18          O19   1.254       .  A
C20          O22   1.278       .  A
C20          O26   1.264       .  A
C20          C77   1.513       .  S
C24         C361   1.509       .  S
In27         O29   2.183   1_556  S
In27         O30   2.275   1_556  S
In27         O38   2.194       .  S
In27         O32   2.255   1_556  S
In27         O34   2.274       .  S
In27         O35   2.266       .  S
In27         O36   2.222       .  S
In27         O39   2.205       .  S
C28          C41   1.460   1_655  S
C28        O1218   1.260       .  A
C28        O1220   1.255       .  A
O29          C37   1.262       .  A
O30          C37   1.279       .  A
C31          O38   1.253       .  A
C31          O32   1.262   1_556  A
C33          O35   1.273       .  A
C33          O39   1.256       .  A
C33          C53   1.508       .  S
O34        C1212   1.260       .  A
O36        C1212   1.255       .  A
C37         C385   1.507       .  S
In40         O42   2.199       .  S
In40         O43   2.260       .  S
In40         O51   2.261   1_556  S
In40         O45   2.181       .  S
In40         O47   2.276       .  S
In40         O48   2.261   1_556  S
In40         O49   2.221       .  S
In40         O52   2.198   1_556  S
C41          O47   1.261       .  A
C41          O49   1.255       .  A
O42          C50   1.255       .  A
O43          C50   1.270       .  A
C44          O51   1.264   1_556  A
C44          O45   1.255       .  A
C46          O48   1.275       .  A
C46          O52   1.264       .  A
C46         C373   1.508       .  S
C50          C65   1.502       .  S
C53          C54   1.511       .  S
C53          C59   1.519       .  S
C53          C57   1.534       .  S
C54          H61   1.080       .  S
C54         C647   1.381   1_545  D
C55         C648   1.584       .  S
C55         C646   1.378       .  D
C55          C96   1.538       .  S
C56          C60   1.582       .  S
C56         C647   1.583   1_545  S
C56        C1242   1.544       .  S
C56          H62   1.108       .  S
C57        H1247   1.078       .  S
C57        C1242   1.372       .  D
C58        C1240   1.544   1_455  S
C58        C1241   1.372   1_455  D
C58          C70   1.513       .  S
C59          H64   1.086       .  S
C59          C60   1.356       .  D
C60         C180   1.495       .  S
H63        C1241   1.078       .  S
C65          C66   1.518       .  S
C65          C71   1.511       .  S
C65          C69   1.529       .  S
C66          H73   1.087       .  S
C66          C67   1.354       .  D
C67          C68   1.584       .  S
C67         C187   1.498       .  S
C68          C72   1.584   1_545  S
C68          C70   1.551       .  S
C68          H74   1.108       .  S
C69          H75   1.078       .  S
C69          C70   1.370       .  D
C71          H76   1.079       .  S
C71          C72   1.382   1_545  D
C72         C671   1.541       .  S
C77          C78   1.519       .  S
C77          C83   1.523       .  S
C77          C81   1.522       .  S
C78          H85   1.079       .  S
C78          C79   1.387       .  D
C79          C80   1.581       .  S
C79         C664   1.542       .  S
C80          C84   1.582       .  S
C80          C82   1.542       .  S
C80          H86   1.109       .  S
C81          H87   1.078       .  S
C81          C82   1.365       .  D
C82        C1278   1.505       .  S
C83          H88   1.086       .  S
C83          C84   1.364       .  D
C84         C204   1.502       .  S
C89          C90   1.515       .  S
C89          C95   1.516       .  S
C89          C93   1.519       .  S
C90          H97   1.087       .  S
C90          C91   1.358       .  D
C91          C92   1.576       .  S
C91         C211   1.487       .  S
C92          C96   1.575       .  S
C92          C94   1.547       .  S
C92          H98   1.109       .  S
C93          H99   1.079       .  S
C93          C94   1.369       .  D
C94        C1266   1.505       .  S
C95         H100   1.078       .  S
C95          C96   1.388       .  D
C101        C303   1.511       .  S
C101        C102   1.517       .  S
C101        C107   1.519       .  S
C101        C105   1.521       .  S
C102        H109   1.083       .  S
C102        C103   1.367       .  D
C103        C104   1.545       .  S
C103        C710   1.501       .  S
C104        C108   1.574       .  S
C104        C106   1.579       .  S
C104        H110   1.108       .  S
C105        H111   1.086       .  S
C105        C106   1.363       .  D
C106        C168   1.495       .  S
C107        H112   1.079       .  S
C107        C108   1.388       .  D
C108       C1328   1.542       .  S
C113        C320   1.512       .  S
C113        C114   1.519       .  S
C113        C119   1.516       .  S
C113        C117   1.524       .  S
C114        H121   1.086       .  S
C114        C115   1.363       .  D
C115        C116   1.582       .  S
C115        C151   1.498       .  S
C116        C120   1.581       .  S
C116        C118   1.541   1_545  S
C116        H122   1.109       .  S
C117        H123   1.081       .  S
C117        C118   1.370   1_545  D
C118        C695   1.508       .  S
C119        H124   1.079       .  S
C119        C120   1.385       .  D
C120        C127   1.541       .  S
C125        C342   1.508       .  S
C125        C126   1.510       .  S
C125        C131   1.522       .  S
C125        C129   1.532       .  S
C126       H1317   1.079       .  S
C126       C1311   1.382       .  D
C127       C1312   1.581   1_455  S
C127       C1310   1.382   1_455  D
C128        C132   1.577       .  S
C128       C1311   1.581       .  S
C128        C722   1.545   1_545  S
C128        H134   1.108       .  S
C129        H727   1.077       .  S
C129        C722   1.373   1_545  D
C130        C720   1.547       .  S
C130        C721   1.372       .  D
C130        C142   1.515       .  S
C131        H136   1.087       .  S
C131        C132   1.357       .  D
C132        C228   1.491       .  S
H133       C1310   1.079   1_455  S
H135        C721   1.077       .  S
C137        C333   1.504       .  S
C137        C138   1.517       .  S
C137        C143   1.510       .  S
C137        C141   1.532       .  S
C138        H145   1.087       .  S
C138        C139   1.356       .  D
C139        C140   1.589       .  S
C139        C235   1.501       .  S
C140        C144   1.587       .  S
C140        C142   1.548       .  S
C140        H146   1.108       .  S
C141        H147   1.077       .  S
C141        C142   1.371       .  D
C143        H148   1.079       .  S
C143        C144   1.379       .  D
C144       C1292   1.542       .  S
C149        C264   1.508       .  S
C149        C150   1.526       .  S
C149        C155   1.504       .  S
C149        C153   1.528       .  S
C150        H157   1.086       .  S
C150        C151   1.365       .  D
C151        C152   1.584       .  S
C152        C156   1.578       .  S
C152        C154   1.549   1_545  S
C152        H158   1.109       .  S
C153        H159   1.079       .  S
C153        C154   1.368   1_545  D
C154        C758   1.514       .  S
C155        H160   1.078       .  S
C155        C156   1.381       .  D
C156        C223   1.539       .  S
C161        C272   1.512       .  S
C161        C162   1.506       .  S
C161        C167   1.524       .  S
C161        C165   1.530       .  S
C162        H169   1.079       .  S
C162        C163   1.381       .  D
C163        C164   1.580       .  S
C163        C240   1.544       .  S
C164        C168   1.584       .  S
C164        C166   1.548       .  S
C164        H170   1.109       .  S
C165        H171   1.079       .  S
C165        C166   1.371       .  D
C166        C746   1.514       .  S
C167        H172   1.086       .  S
C167        C168   1.364       .  D
C173        C249   1.499       .  S
C173        C174   1.503       .  S
C173        C179   1.524       .  S
C173        C177   1.528       .  S
C174        H181   1.079       .  S
C174        C175   1.379       .  D
C175        C176   1.582       .  S
C175        C216   1.541       .  S
C176        C180   1.584       .  S
C176        C178   1.548       .  S
C176        H182   1.109       .  S
C177        H183   1.079       .  S
C177        C178   1.367       .  D
C178       C1374   1.511       .  S
C179        H184   1.086       .  S
C179        C180   1.362       .  D
C185        C262   1.506       .  S
C185        C186   1.524       .  S
C185        C191   1.510       .  S
C185        C189   1.536       .  S
C186        H193   1.086       .  S
C186        C187   1.365       .  D
C187        C188   1.591       .  S
C188        C192   1.582       .  S
C188        C190   1.537       .  S
C188        H194   1.109       .  S
C189        H195   1.079       .  S
C189        C190   1.369       .  D
C190       C1362   1.511       .  S
C191        H196   1.082       .  S
C191        C192   1.375       .  D
C192        C199   1.541       .  S
C197        C275   1.513       .  S
C197        C198   1.505       .  S
C197        C203   1.528       .  S
C197        C201   1.523       .  S
C198        H205   1.079       .  S
C198        C199   1.383       .  D
C199        C200   1.575       .  S
C200        C204   1.582       .  S
C200        C202   1.552       .  S
C200        H206   1.109       .  S
C201        H207   1.079       .  S
C201        C202   1.368       .  D
C202       C1398   1.510       .  S
C203        H208   1.086       .  S
C203        C204   1.367       .  D
C209        C288   1.509       .  S
C209        C210   1.523       .  S
C209        C215   1.511       .  S
C209        C213   1.533       .  S
C210        H217   1.087       .  S
C210        C211   1.363       .  D
C211        C212   1.579       .  S
C212        C216   1.578       .  S
C212        C214   1.538       .  S
C212        H218   1.109       .  S
C213        H219   1.079       .  S
C213        C214   1.370       .  D
C214       C1386   1.510       .  S
C215        H220   1.080       .  S
C215        C216   1.381       .  D
C221        C246   1.497       .  S
C221        C222   1.506       .  S
C221        C227   1.519       .  S
C221        C225   1.532       .  S
C222        H229   1.079       .  S
C222        C223   1.377       .  D
C223        C224   1.580       .  S
C224        C228   1.587       .  S
C224        C226   1.546   1_545  S
C224        H230   1.109       .  S
C225        H231   1.078       .  S
C225        C226   1.366   1_545  D
C226        C830   1.511       .  S
C227        H232   1.087       .  S
C227        C228   1.361       .  D
C233        C290   1.511       .  S
C233        C234   1.528       .  S
C233        C239   1.509       .  S
C233        C237   1.534       .  S
C234        H241   1.086       .  S
C234        C235   1.366       .  D
C235        C236   1.589       .  S
C236        C240   1.581       .  S
C236        C238   1.540       .  S
C236        H242   1.109       .  S
C237        H243   1.080       .  S
C237        C238   1.369       .  D
C238        C818   1.510       .  S
C239        H244   1.080       .  S
C239        C240   1.378       .  D
In245       O247   2.260       .  S
In245       O248   2.147       .  S
In245       O256   2.227       .  S
In245       O250   2.232       .  S
In245       O252   2.231       .  S
In245       O253   2.145       .  S
In245       O254   2.225       .  S
In245       O257   2.261       .  S
C246        O252   1.269       .  A
C246        O254   1.253       .  A
O247       C1439   1.266       .  A
O248       C1439   1.256       .  A
C249        O256   1.253       .  A
C249        O250   1.269       .  A
C251        C877   1.436       .  S
C251        O253   1.257   1_565  A
C251        O257   1.266   1_565  A
C255        C268   1.438       .  S
C255       O1431   1.266   1_455  A
C255       O1432   1.256   1_455  A
In258       O260   2.149       .  S
In258       O261   2.262       .  S
In258       O269   2.247       .  S
In258       O263   2.241       .  S
In258       O265   2.268       .  S
In258       O266   2.238       .  S
In258       O267   2.140       .  S
In258       O270   2.243       .  S
C259        C277   1.438       .  S
C259        O857   1.267       .  A
C259        O859   1.256       .  A
O260        C268   1.257       .  A
O261        C268   1.266       .  A
C262        O269   1.270       .  A
C262        O263   1.253       .  A
C264        O266   1.253       .  A
C264        O270   1.271       .  A
O265        C851   1.267   1_545  A
O267        C851   1.256   1_545  A
In271       O273   2.260       .  S
In271       O274   2.146       .  S
In271       O282   2.246       .  S
In271       O276   2.242       .  S
In271       O278   2.247       .  S
In271       O279   2.140       .  S
In271       O280   2.245       .  S
In271       O283   2.263       .  S
C272        O278   1.270       .  A
C272        O280   1.255       .  A
O273        C281   1.267       .  A
O274        C281   1.257       .  A
C275        O282   1.256       .  A
C275        O276   1.270       .  A
C277        O279   1.257       .  A
C277        O283   1.267       .  A
C281        C294   1.438       .  S
In284       O286   2.151       .  S
In284       O287   2.262       .  S
In284       O295   2.255       .  S
In284       O289   2.236       .  S
In284       O291   2.269       .  S
In284       O292   2.244       .  S
In284       O293   2.145       .  S
In284       O296   2.247       .  S
C285        C843   1.440       .  S
C285        O291   1.267       .  A
C285        O293   1.256       .  A
O286       C1478   1.256       .  A
O287       C1478   1.266       .  A
C288        O295   1.271       .  A
C288        O289   1.254       .  A
C290        O292   1.254       .  A
C290        O296   1.271       .  A
C294       O1470   1.256   1_455  A
C294       O1471   1.266   1_455  A
In297       O299   2.218       .  S
In297       O300   2.250       .  S
In297       O308   2.248       .  S
In297       O302   2.185       .  S
In297       O304   2.284       .  S
In297       O305   2.265       .  S
In297       O306   2.213       .  S
In297       O309   2.202       .  S
C298        C311   1.460       .  S
C298        O304   1.261       .  A
C298        O306   1.254       .  A
O299        C307   1.255       .  A
O300        C307   1.268       .  A
C301        C327   1.436       .  S
C301        O308   1.263       .  A
C301        O302   1.256       .  A
C303        O305   1.276       .  A
C303        O309   1.264       .  A
C307        C433   1.505       .  S
In310       O312   2.199       .  S
In310       O313   2.266       .  S
In310       O321   2.187       .  S
In310       O315   2.253       .  S
In310       O317   2.270       .  S
In310       O318   2.257       .  S
In310       O319   2.212       .  S
In310       O322   2.216       .  S
C311        O909   1.260       .  A
C311        O911   1.253       .  A
O312        C320   1.264       .  A
O313        C320   1.278       .  A
C314        C340   1.437       .  S
C314        O321   1.255       .  A
C314        O315   1.263       .  A
C316        O318   1.270       .  A
C316        O322   1.256       .  A
C316        C421   1.508       .  S
O317        C903   1.261       .  A
O319        C903   1.254       .  A
In323       O325   2.214       .  S
In323       O326   2.252       .  S
In323       O334   2.250       .  S
In323       O328   2.192       .  S
In323       O330   2.286       .  S
In323       O331   2.271       .  S
In323       O332   2.214       .  S
In323       O335   2.194       .  S
C324        C337   1.461       .  S
C324        O330   1.261       .  A
C324        O332   1.254       .  A
O325        C333   1.256       .  A
O326        C333   1.270       .  A
C327        O334   1.262       .  A
C327        O328   1.255       .  A
C329        O331   1.277       .  A
C329        O335   1.264       .  A
C329        C397   1.510       .  S
In336       O338   2.196       .  S
In336       O339   2.266       .  S
In336       O347   2.191       .  S
In336       O341   2.250       .  S
In336       O343   2.290       .  S
In336       O344   2.252       .  S
In336       O345   2.208       .  S
In336       O348   2.218       .  S
C337        O935   1.262       .  A
C337        O937   1.254       .  A
O338        C346   1.264       .  A
O339        C346   1.277       .  A
C340        O347   1.256       .  A
C340        O341   1.262       .  A
C342        O344   1.268       .  A
C342        O348   1.256       .  A
O343        C929   1.262   1_545  A
O345        C929   1.253   1_545  A
C346        C409   1.508       .  S
C349        C350   1.530       .  S
C349        C355   1.510       .  S
C349        C353   1.517       .  S
C350       H1541   1.077       .  S
C350       C1535   1.368       .  D
C351       C1536   1.551       .  S
C351       C1534   1.368       .  D
C351        C366   1.513   1_655  S
C352        C356   1.583       .  S
C352        C354   1.584       .  S
C352       C1535   1.551       .  S
C352        H358   1.108       .  S
C353        H359   1.087       .  S
C353        C354   1.355       .  D
C354        C524   1.495       .  S
C355        H360   1.079       .  S
C355        C356   1.380       .  D
C356        C984   1.539       .  S
H357       C1534   1.077       .  S
C361        C362   1.521       .  S
C361        C367   1.509       .  S
C361        C365   1.535       .  S
C362        H369   1.087       .  S
C362        C363   1.356       .  D
C363        C364   1.581       .  S
C363        C531   1.495       .  S
C364        C368   1.586       .  S
C364        C366   1.543       .  S
C364        H370   1.108       .  S
C365        H371   1.079       .  S
C365        C366   1.375       .  D
C367        H372   1.079       .  S
C367        C368   1.379       .  D
C368        C375   1.542       .  S
C373        C374   1.519       .  S
C373        C379   1.514       .  S
C373        C377   1.522       .  S
C374        H381   1.079       .  S
C374        C967   1.388       .  D
C375        C968   1.577       .  S
C375        C966   1.388       .  D
C376        C380   1.579       .  S
C376        C378   1.543       .  S
C376        C967   1.572       .  S
C376        H382   1.109       .  S
C377        H383   1.079       .  S
C377        C378   1.370       .  D
C378       C1574   1.506   1_455  S
C379        H384   1.087       .  S
C379        C380   1.359       .  D
C380        C476   1.488       .  S
C385        C386   1.523       .  S
C385        C391   1.513       .  S
C385        C389   1.522       .  S
C386        H393   1.087       .  S
C386        C387   1.361       .  D
C387        C388   1.580       .  S
C387        C483   1.499       .  S
C388        C392   1.585       .  S
C388        C390   1.546       .  S
C388        H394   1.109       .  S
C389        H395   1.080       .  S
C389        C390   1.365       .  D
C390       C1562   1.506       .  S
C391        H396   1.079       .  S
C391        C392   1.385       .  D
C392        C948   1.543   1_545  S
C397        C398   1.516       .  S
C397        C403   1.522       .  S
C397        C401   1.518       .  S
C398       H1589   1.078       .  S
C398       C1583   1.388       .  D
C399       C1584   1.578       .  S
C399       C1582   1.388       .  D
C399        C440   1.540   1_655  S
C400        C404   1.579       .  S
C400        C402   1.546       .  S
C400       C1583   1.578       .  S
C400        H406   1.109       .  S
C401        H407   1.081       .  S
C401        C402   1.365       .  D
C402       C1006   1.502       .  S
C403        H408   1.087       .  S
C403        C404   1.362       .  D
C404        C500   1.498       .  S
H405       C1582   1.078       .  S
C409        C410   1.519       .  S
C409        C415   1.516       .  S
C409        C413   1.519       .  S
C410        H417   1.086       .  S
C410        C411   1.362       .  D
C411        C412   1.586       .  S
C411        C507   1.502       .  S
C412        C416   1.581       .  S
C412        C414   1.549       .  S
C412        H418   1.109       .  S
C413        H419   1.079       .  S
C413        C414   1.365       .  D
C414        C994   1.508   1_545  S
C415        H420   1.079       .  S
C415        C416   1.386       .  D
C416       C1607   1.541       .  S
C421        C422   1.512       .  S
C421        C427   1.519       .  S
C421        C425   1.531       .  S
C422        H429   1.079       .  S
C422        C423   1.382       .  D
C423        C424   1.581       .  S
C423       C1600   1.541   1_455  S
C424        C428   1.581       .  S
C424       C1018   1.547       .  S
C424        H430   1.108       .  S
C425       H1023   1.078       .  S
C425       C1018   1.373       .  D
C426       C1016   1.548       .  S
C426       C1017   1.371       .  D
C426        C438   1.515       .  S
C427        H432   1.086       .  S
C427        C428   1.356       .  D
C428        C452   1.492       .  S
H431       C1017   1.078       .  S
C433        C434   1.517       .  S
C433        C439   1.510       .  S
C433        C437   1.533       .  S
C434        H441   1.086       .  S
C434        C435   1.356       .  D
C435        C436   1.582       .  S
C435        C459   1.493       .  S
C436        C440   1.584       .  S
C436        C438   1.547       .  S
C436        H442   1.108       .  S
C437        H443   1.078       .  S
C437        C438   1.372       .  D
C439        H444   1.079       .  S
C439        C440   1.380       .  D
C445        C558   1.505       .  S
C445        C446   1.508       .  S
C445        C451   1.521       .  S
C445        C449   1.534       .  S
C446        H453   1.080       .  S
C446        C447   1.379       .  D
C447        C448   1.580       .  S
C447        C512   1.543       .  S
C448        C452   1.586       .  S
C448        C450   1.542       .  S
C448        H454   1.109       .  S
C449        H455   1.078       .  S
C449        C450   1.370       .  D
C450       C1054   1.512   1_545  S
C451        H456   1.086       .  S
C451        C452   1.361       .  D
C457        C573   1.501       .  S
C457        C458   1.525       .  S
C457        C463   1.506       .  S
C457        C461   1.531       .  S
C458        H465   1.086       .  S
C458        C459   1.363       .  D
C459        C460   1.584       .  S
C460        C464   1.581       .  S
C460        C462   1.541       .  S
C460        H466   1.109       .  S
C461        H467   1.079       .  S
C461        C462   1.367       .  D
C462       C1042   1.509       .  S
C463        H468   1.080       .  S
C463        C464   1.379       .  D
C464        C495   1.541       .  S
C469        C555   1.507       .  S
C469        C470   1.503       .  S
C469        C475   1.525       .  S
C469        C473   1.527       .  S
C470        H477   1.079       .  S
C470        C471   1.383       .  D
C471        C472   1.576       .  S
C471        C536   1.540       .  S
C472        C476   1.577       .  S
C472        C474   1.548       .  S
C472        H478   1.109       .  S
C473        H479   1.078       .  S
C473        C474   1.369       .  D
C474       C1670   1.511   1_455  S
C475        H480   1.086       .  S
C475        C476   1.363       .  D
C481        C547   1.515       .  S
C481        C482   1.525       .  S
C481        C487   1.510       .  S
C481        C485   1.531       .  S
C482        H489   1.086       .  S
C482        C483   1.364       .  D
C483        C484   1.585       .  S
C484        C488   1.578       .  S
C484        C486   1.543       .  S
C484        H490   1.109       .  S
C485        H491   1.078       .  S
C485        C486   1.370       .  D
C486       C1658   1.511       .  S
C487        H492   1.079       .  S
C487        C488   1.383       .  D
C488        C519   1.543       .  S
C493        C584   1.509       .  S
C493        C494   1.505       .  S
C493        C499   1.526       .  S
C493        C497   1.530       .  S
C494        H501   1.079       .  S
C494        C495   1.380       .  D
C495        C496   1.580       .  S
C496        C500   1.583       .  S
C496        C498   1.547       .  S
C496        H502   1.109       .  S
C497        H503   1.078       .  S
C497        C498   1.369       .  D
C498       C1102   1.514       .  S
C499        H504   1.086       .  S
C499        C500   1.365       .  D
C505        C545   1.514       .  S
C505        C506   1.530       .  S
C505        C511   1.506       .  S
C505        C509   1.529       .  S
C506        H513   1.086       .  S
C506        C507   1.368       .  D
C507        C508   1.583       .  S
C508        C512   1.581       .  S
C508        C510   1.545       .  S
C508        H514   1.109       .  S
C509        H515   1.079       .  S
C509        C510   1.370       .  D
C510       C1090   1.513   1_545  S
C511        H516   1.079       .  S
C511        C512   1.380       .  D
C517        C581   1.504       .  S
C517        C518   1.505       .  S
C517        C523   1.526       .  S
C517        C521   1.533       .  S
C518        H525   1.079       .  S
C518        C519   1.377       .  D
C519        C520   1.582       .  S
C520        C524   1.584       .  S
C520        C522   1.544       .  S
C520        H526   1.109       .  S
C521        H527   1.079       .  S
C521        C522   1.369       .  D
C522       C1718   1.512       .  S
C523        H528   1.085       .  S
C523        C524   1.364       .  D
C529        C571   1.497       .  S
C529        C530   1.519       .  S
C529        C535   1.508       .  S
C529        C533   1.537       .  S
C530        H537   1.086       .  S
C530        C531   1.361       .  D
C531        C532   1.592       .  S
C532        C536   1.583       .  S
C532        C534   1.541       .  S
C532        H538   1.109       .  S
C533        H539   1.079       .  S
C533        C534   1.368       .  D
C534       C1706   1.512   1_455  S
C535        H540   1.081       .  S
C535        C536   1.374       .  D
In541       O543   2.135       .  S
In541       O544   2.274       .  S
In541       O552   2.251       .  S
In541       O546   2.250       .  S
In541       O548   2.253       .  S
In541       O549   2.247       .  S
In541       O550   2.155       .  S
In541       O553   2.253       .  S
C542        C560   1.437   1_655  S
C542       O1732   1.266       .  A
C542       O1734   1.257       .  A
O543       C1143   1.256       .  A
O544       C1143   1.267       .  A
C545        O552   1.272       .  A
C545        O546   1.254       .  A
C547        O549   1.255       .  A
C547        O553   1.270       .  A
O548       C1726   1.266       .  A
O550       C1726   1.257       .  A
C551        C590   1.438       .  S
C551       O1135   1.256       .  A
C551       O1136   1.267       .  A
In554       O556   2.255       .  S
In554       O557   2.145       .  S
In554       O565   2.226       .  S
In554       O559   2.242       .  S
In554       O561   2.233       .  S
In554       O562   2.154       .  S
In554       O563   2.231       .  S
In554       O566   2.250       .  S
C555        O561   1.271       .  A
C555        O563   1.256       .  A
O556       C1156   1.266       .  A
O557       C1156   1.257       .  A
C558        O565   1.255       .  A
C558        O559   1.271       .  A
C560        O562   1.257       .  A
C560        O566   1.266       .  A
C564        C568   1.440       .  S
C564       O1148   1.266       .  A
C564       O1149   1.256       .  A
In567       O569   2.144       .  S
In567       O570   2.276       .  S
In567       O578   2.239       .  S
In567       O572   2.224       .  S
In567       O574   2.270       .  S
In567       O575   2.234       .  S
In567       O576   2.151       .  S
In567       O579   2.238       .  S
C568        O574   1.266       .  A
C568        O576   1.256       .  A
O569        C577   1.256       .  A
O570        C577   1.267       .  A
C571        O578   1.269       .  A
C571        O572   1.251       .  A
C573        O575   1.253       .  A
C573        O579   1.269       .  A
C577       C1770   1.441   1_455  S
In580       O582   2.263       .  S
In580       O583   2.141       .  S
In580       O591   2.237       .  S
In580       O585   2.243       .  S
In580       O587   2.239       .  S
In580       O588   2.142       .  S
In580       O589   2.233       .  S
In580       O592   2.272       .  S
C581        O587   1.271       .  A
C581        O589   1.254       .  A
O582        C590   1.267       .  A
O583        C590   1.257       .  A
C584        O591   1.255       .  A
C584        O585   1.271       .  A
C586       C1761   1.441       .  S
C586        O588   1.256       .  A
C586        O592   1.267       .  A
In593       O595   2.188   1_554  S
In593       O596   2.262   1_554  S
In593       O604   2.184       .  S
In593       O598   2.252   1_554  S
In593       O600   2.279       .  S
In593       O601   2.254       .  S
In593       O602   2.217       .  S
In593       O605   2.220       .  S
C594        C607   1.458       .  S
C594       O1784   1.261   1_455  A
C594       O1786   1.254   1_455  A
O595        C603   1.263       .  A
O596        C603   1.277       .  A
C597        C623   1.437   1_554  S
C597        O604   1.255       .  A
C597        O598   1.264   1_554  A
C599        O601   1.269       .  A
C599        O605   1.256       .  A
C599        C941   1.507       .  S
O600       C1778   1.261       .  A
O602       C1778   1.254       .  A
C603        C681   1.505       .  S
In606       O608   2.210       .  S
In606       O609   2.254       .  S
In606       O617   2.249   1_554  S
In606       O611   2.179       .  S
In606       O613   2.273       .  S
In606       O614   2.266   1_554  S
In606       O615   2.215       .  S
In606       O618   2.197   1_554  S
C607        O613   1.260       .  A
C607        O615   1.255       .  A
O608        C616   1.255       .  A
O609        C616   1.270       .  A
C610        C636   1.435   1_554  S
C610        O617   1.264   1_554  A
C610        O611   1.255       .  A
C612        O614   1.277       .  A
C612        O618   1.263       .  A
C612        C669   1.509       .  S
C616        C953   1.504       .  S
In619       O621   2.201   1_556  S
In619       O622   2.275   1_556  S
In619       O630   2.193       .  S
In619       O624   2.251   1_556  S
In619       O626   2.273       .  S
In619       O627   2.260       .  S
In619       O628   2.224       .  S
In619       O631   2.211       .  S
C620        C633   1.459       .  S
C620       O1810   1.260   1_455  A
C620       O1812   1.254   1_455  A
O621        C629   1.264       .  A
O622        C629   1.277       .  A
C623        O630   1.254       .  A
C623        O624   1.263   1_556  A
C625        O627   1.270       .  A
C625        O631   1.254       .  A
C625        C645   1.506       .  S
O626       C1804   1.260       .  A
O628       C1804   1.254       .  A
C629        C977   1.514       .  S
In632       O634   2.212       .  S
In632       O635   2.255       .  S
In632       O643   2.259   1_556  S
In632       O637   2.176       .  S
In632       O639   2.271       .  S
In632       O640   2.268   1_556  S
In632       O641   2.221       .  S
In632       O644   2.196   1_556  S
C633        O639   1.261       .  A
C633        O641   1.256       .  A
O634        C642   1.255       .  A
O635        C642   1.269       .  A
C636        O643   1.263   1_556  A
C636        O637   1.255       .  A
C638        O640   1.276       .  A
C638        O644   1.264       .  A
C638        C965   1.509       .  S
C642        C657   1.505       .  S
C645        C646   1.510       .  S
C645        C651   1.520       .  S
C645        C649   1.539       .  S
C646        H653   1.081       .  S
C647        C688   1.540       .  S
C648        C652   1.577       .  S
C648       C1834   1.538       .  S
C648        H654   1.108       .  S
C649       H1839   1.079       .  S
C649       C1834   1.375       .  D
C650       C1832   1.538   1_455  S
C650       C1833   1.375   1_455  D
C650        C662   1.513       .  S
C651        H656   1.087       .  S
C651        C652   1.355       .  D
C652        C772   1.488       .  S
H655       C1833   1.079       .  S
C657        C658   1.520       .  S
C657        C663   1.511       .  S
C657        C661   1.527       .  S
C658        H665   1.087       .  S
C658        C659   1.357       .  D
C659        C660   1.587       .  S
C659        C779   1.505       .  S
C660        C664   1.583       .  S
C660        C662   1.556       .  S
C660        H666   1.108       .  S
C661        H667   1.078       .  S
C661        C662   1.368       .  D
C663        H668   1.079       .  S
C663        C664   1.383       .  D
C669        C670   1.517       .  S
C669        C675   1.520       .  S
C669        C673   1.523       .  S
C670        H677   1.078       .  S
C670        C671   1.386       .  D
C671        C672   1.578       .  S
C672        C676   1.582       .  S
C672        C674   1.542       .  S
C672        H678   1.109       .  S
C673        H679   1.074       .  S
C673        C674   1.368       .  D
C674       C1870   1.506       .  S
C675        H680   1.087       .  S
C675        C676   1.362       .  D
C676        C796   1.497       .  S
C681        C682   1.517       .  S
C681        C687   1.513       .  S
C681        C685   1.521       .  S
C682        H689   1.087       .  S
C682        C683   1.359       .  D
C683        C684   1.578       .  S
C683        C803   1.491       .  S
C684        C688   1.579       .  S
C684        C686   1.547       .  S
C684        H690   1.109       .  S
C685        H691   1.075       .  S
C685        C686   1.368       .  D
C686       C1858   1.506       .  S
C687        H692   1.078       .  S
C687        C688   1.386       .  D
C693        C895   1.502       .  S
C693        C694   1.519       .  S
C693        C699   1.511       .  S
C693        C697   1.518       .  S
C694        H701   1.081       .  S
C694        C695   1.364       .  D
C695        C696   1.550       .  S
C696        C700   1.585       .  S
C696        C698   1.583       .  S
C696        H702   1.109       .  S
C697        H703   1.087       .  S
C697        C698   1.361       .  D
C698        C760   1.498       .  S
C699        H704   1.078       .  S
C699        C700   1.383       .  D
C700       C1920   1.540       .  S
C705        C912   1.505       .  S
C705        C706   1.519       .  S
C705        C711   1.517       .  S
C705        C709   1.517       .  S
C706        H713   1.086       .  S
C706        C707   1.360       .  D
C707        C708   1.573       .  S
C707        C743   1.488       .  S
C708        C712   1.576       .  S
C708        C710   1.544       .  S
C708        H714   1.109       .  S
C709        H715   1.083       .  S
C709        C710   1.364       .  D
C711        H716   1.078       .  S
C711        C712   1.390       .  D
C712        C719   1.541       .  S
C717        C934   1.502       .  S
C717        C718   1.509       .  S
C717        C723   1.518       .  S
C717        C721   1.533       .  S
C718       H1909   1.080       .  S
C718       C1903   1.378       .  D
C719       C1904   1.588   1_455  S
C719       C1902   1.378   1_455  D
C720       C1903   1.589       .  S
C720        C724   1.585       .  S
C720        H726   1.108       .  S
C722        C734   1.510       .  S
C723        H728   1.087       .  S
C723        C724   1.355       .  D
C724        C820   1.497       .  S
H725       C1902   1.080       .  S
C729        C925   1.510       .  S
C729        C730   1.520       .  S
C729        C735   1.514       .  S
C729        C733   1.530       .  S
C730        H737   1.087       .  S
C730        C731   1.356       .  D
C731        C732   1.580       .  S
C731        C827   1.493       .  S
C732        C736   1.578       .  S
C732        C734   1.547       .  S
C732        H738   1.108       .  S
C733        H739   1.077       .  S
C733        C734   1.370       .  D
C735        H740   1.079       .  S
C735        C736   1.385       .  D
C736       C1884   1.540       .  S
C741        C856   1.506       .  S
C741        C742   1.521       .  S
C741        C747   1.507       .  S
C741        C745   1.532       .  S
C742        H749   1.086       .  S
C742        C743   1.363       .  D
C743        C744   1.583       .  S
C744        C748   1.578       .  S
C744        C746   1.545       .  S
C744        H750   1.109       .  S
C745        H751   1.079       .  S
C745        C746   1.369       .  D
C747        H752   1.079       .  S
C747        C748   1.381       .  D
C748        C815   1.541       .  S
C753        C864   1.512       .  S
C753        C754   1.506       .  S
C753        C759   1.528       .  S
C753        C757   1.531       .  S
C754        H761   1.079       .  S
C754        C755   1.380       .  D
C755        C756   1.580       .  S
C755        C832   1.541       .  S
C756        C760   1.582       .  S
C756        C758   1.544       .  S
C756        H762   1.109       .  S
C757        H763   1.079       .  S
C757        C758   1.371       .  D
C759        H764   1.086       .  S
C759        C760   1.366       .  D
C765        C841   1.500       .  S
C765        C766   1.508       .  S
C765        C771   1.518       .  S
C765        C769   1.532       .  S
C766        H773   1.080       .  S
C766        C767   1.378       .  D
C767        C768   1.579       .  S
C767        C808   1.540       .  S
C768        C772   1.587       .  S
C768        C770   1.541       .  S
C768        H774   1.109       .  S
C769        H775   1.079       .  S
C769        C770   1.369       .  D
C770       C1966   1.508       .  S
C771        H776   1.086       .  S
C771        C772   1.360       .  D
C777        C854   1.506       .  S
C777        C778   1.530       .  S
C777        C783   1.508       .  S
C777        C781   1.528       .  S
C778        H785   1.086       .  S
C778        C779   1.366       .  D
C779        C780   1.587       .  S
C780        C784   1.582       .  S
C780        C782   1.543       .  S
C780        H786   1.109       .  S
C781        H787   1.079       .  S
C781        C782   1.366       .  D
C782       C1954   1.508       .  S
C783        H788   1.079       .  S
C783        C784   1.379       .  D
C784        C791   1.543       .  S
C789        C867   1.511       .  S
C789        C790   1.509       .  S
C789        C795   1.524       .  S
C789        C793   1.531       .  S
C790        H797   1.079       .  S
C790        C791   1.381       .  D
C791        C792   1.579       .  S
C792        C796   1.585       .  S
C792        C794   1.546       .  S
C792        H798   1.109       .  S
C793        H799   1.079       .  S
C793        C794   1.369       .  D
C794       C1990   1.515       .  S
C795        H800   1.086       .  S
C795        C796   1.364       .  D
C801        C880   1.509       .  S
C801        C802   1.525       .  S
C801        C807   1.503       .  S
C801        C805   1.531       .  S
C802        H809   1.086       .  S
C802        C803   1.364       .  D
C803        C804   1.580       .  S
C804        C808   1.579       .  S
C804        C806   1.546       .  S
C804        H810   1.109       .  S
C805        H811   1.079       .  S
C805        C806   1.370       .  D
C806       C1978   1.515       .  S
C807        H812   1.079       .  S
C807        C808   1.380       .  D
C813        C838   1.498       .  S
C813        C814   1.502       .  S
C813        C819   1.524       .  S
C813        C817   1.530       .  S
C814        H821   1.079       .  S
C814        C815   1.377       .  D
C815        C816   1.582       .  S
C816        C820   1.588       .  S
C816        C818   1.545       .  S
C816        H822   1.109       .  S
C817        H823   1.079       .  S
C817        C818   1.367       .  D
C819        H824   1.086       .  S
C819        C820   1.363       .  D
C825        C882   1.511       .  S
C825        C826   1.524       .  S
C825        C831   1.509       .  S
C825        C829   1.534       .  S
C826        H833   1.086       .  S
C826        C827   1.363       .  D
C827        C828   1.583       .  S
C828        C832   1.579       .  S
C828        C830   1.540       .  S
C828        H834   1.109       .  S
C829        H835   1.078       .  S
C829        C830   1.372       .  D
C831        H836   1.079       .  S
C831        C832   1.380       .  D
In837       O839   2.265       .  S
In837       O840   2.136       .  S
In837       O848   2.229       .  S
In837       O842   2.241       .  S
In837       O844   2.235       .  S
In837       O845   2.141       .  S
In837       O846   2.224       .  S
In837       O849   2.272       .  S
C838        O844   1.270       .  A
C838        O846   1.251       .  A
O839       C2031   1.267       .  A
O840       C2031   1.256       .  A
C841        O848   1.253       .  A
C841        O842   1.269       .  A
C843        O845   1.256       .  A
C843        O849   1.268       .  A
C847        C860   1.436       .  S
C847       O2023   1.267   1_455  A
C847       O2024   1.256   1_455  A
In850       O852   2.140       .  S
In850       O853   2.269       .  S
In850       O861   2.247       .  S
In850       O855   2.239       .  S
In850       O857   2.269       .  S
In850       O858   2.241       .  S
In850       O859   2.143       .  S
In850       O862   2.242       .  S
C851        C869   1.437       .  S
O852        C860   1.255       .  A
O853        C860   1.266       .  A
C854        O861   1.271       .  A
C854        O855   1.253       .  A
C856        O858   1.253       .  A
C856        O862   1.269       .  A
In863       O865   2.260       .  S
In863       O866   2.151       .  S
In863       O874   2.242       .  S
In863       O868   2.247       .  S
In863       O870   2.249       .  S
In863       O871   2.138       .  S
In863       O872   2.242       .  S
In863       O875   2.264       .  S
C864        O870   1.271       .  A
C864        O872   1.255       .  A
O865        C873   1.267       .  A
O866        C873   1.258       .  A
C867        O874   1.255       .  A
C867        O868   1.271       .  A
C869        O871   1.257       .  A
C869        O875   1.267       .  A
C873        C886   1.440       .  S
In876       O878   2.150       .  S
In876       O879   2.264       .  S
In876       O887   2.240       .  S
In876       O881   2.240       .  S
In876       O883   2.262       .  S
In876       O884   2.241       .  S
In876       O885   2.142       .  S
In876       O888   2.250       .  S
C877        O883   1.266       .  A
C877        O885   1.255       .  A
O878       C2070   1.257       .  A
O879       C2070   1.268       .  A
C880        O887   1.270       .  A
C880        O881   1.255       .  A
C882        O884   1.255       .  A
C882        O888   1.270       .  A
C886       O2062   1.257   1_455  A
C886       O2063   1.267   1_455  A
In889       O891   2.206       .  S
In889       O892   2.261       .  S
In889       O900   2.251       .  S
In889       O894   2.173       .  S
In889       O896   2.267       .  S
In889       O897   2.260       .  S
In889       O898   2.222       .  S
In889       O901   2.191       .  S
C890        C903   1.456   1_565  S
C890        O896   1.259       .  A
C890        O898   1.255       .  A
O891        C899   1.255       .  A
O892        C899   1.270       .  A
C893        C919   1.438       .  S
C893        O900   1.264       .  A
C893        O894   1.255       .  A
C895        O897   1.276       .  A
C895        O901   1.263       .  A
C899       C1025   1.504       .  S
In902       O904   2.188       .  S
In902       O905   2.268       .  S
In902       O913   2.181       .  S
In902       O907   2.247       .  S
In902       O909   2.289       .  S
In902       O910   2.242       .  S
In902       O911   2.216       .  S
In902       O914   2.221       .  S
O904        C912   1.264       .  A
O905        C912   1.275       .  A
C906        C932   1.435       .  S
C906        O913   1.257       .  A
C906        O907   1.263       .  A
C908        O910   1.266       .  A
C908        O914   1.256       .  A
C908       C1013   1.504       .  S
In915       O917   2.215       .  S
In915       O918   2.263       .  S
In915       O926   2.245       .  S
In915       O920   2.212       .  S
In915       O922   2.291       .  S
In915       O923   2.271       .  S
In915       O924   2.211       .  S
In915       O927   2.188       .  S
C916        C929   1.460       .  S
C916        O922   1.261       .  A
C916        O924   1.253       .  A
O917        C925   1.256       .  A
O918        C925   1.270       .  A
C919        O926   1.259       .  A
C919        O920   1.254       .  A
C921        O923   1.279       .  A
C921        O927   1.263       .  A
C921        C989   1.509       .  S
In928       O930   2.195       .  S
In928       O931   2.264       .  S
In928       O939   2.198       .  S
In928       O933   2.244       .  S
In928       O935   2.285       .  S
In928       O936   2.252       .  S
In928       O937   2.212       .  S
In928       O940   2.202       .  S
O930        C938   1.265       .  A
O931        C938   1.278       .  A
C932        O939   1.254       .  A
C932        O933   1.261       .  A
C934        O936   1.271       .  A
C934        O940   1.255       .  A
C938       C1001   1.509       .  S
C941        C942   1.529       .  S
C941        C947   1.513       .  S
C941        C945   1.519       .  S
C942       H2133   1.078       .  S
C942       C2127   1.369       .  D
C943       C2128   1.548       .  S
C943       C2126   1.369       .  D
C943        C958   1.511   1_655  S
C944       C2127   1.548       .  S
C944        C948   1.581       .  S
C944        C946   1.584       .  S
C944        H950   1.108       .  S
C945        H951   1.087       .  S
C945        C946   1.357       .  D
C946       C1116   1.497       .  S
C947        H952   1.079       .  S
C947        C948   1.384       .  D
H949       C2126   1.078       .  S
C953        C954   1.520       .  S
C953        C959   1.509       .  S
C953        C957   1.532       .  S
C954        H961   1.087       .  S
C954        C955   1.357       .  D
C955        C956   1.579       .  S
C955       C1123   1.493       .  S
C956        C960   1.585       .  S
C956        C958   1.545       .  S
C956        H962   1.108       .  S
C957        H963   1.078       .  S
C957        C958   1.372       .  D
C959        H964   1.079       .  S
C959        C960   1.378       .  D
C960        C967   1.538   1_565  S
C965        C966   1.517       .  S
C965        C971   1.516       .  S
C965        C969   1.521       .  S
C966        H973   1.078       .  S
C968        C972   1.578       .  S
C968        C970   1.544       .  S
C968        H974   1.109       .  S
C969        H975   1.077       .  S
C969        C970   1.368       .  D
C970       C2166   1.505   1_455  S
C971        H976   1.087       .  S
C971        C972   1.359       .  D
C972       C1068   1.489       .  S
C977        C978   1.523       .  S
C977        C983   1.517       .  S
C977        C981   1.520       .  S
C978        H985   1.086       .  S
C978        C979   1.364       .  D
C979        C980   1.579       .  S
C979       C1075   1.501       .  S
C980        C984   1.577       .  S
C980        C982   1.545       .  S
C980        H986   1.109       .  S
C981        H987   1.077       .  S
C981        C982   1.366       .  D
C982       C2154   1.505       .  S
C983        H988   1.078       .  S
C983        C984   1.388       .  D
C989        C990   1.512       .  S
C989        C995   1.522       .  S
C989        C993   1.522       .  S
C990       H2181   1.079       .  S
C990       C2175   1.385       .  D
C991       C2176   1.582       .  S
C991       C2174   1.385       .  D
C991       C1032   1.539   1_655  S
C992       C2175   1.582       .  S
C992        C996   1.577       .  S
C992        C994   1.543       .  S
C992        H998   1.109       .  S
C993        H999   1.080       .  S
C993        C994   1.369       .  D
C995       H1000   1.087       .  S
C995        C996   1.362       .  D
C996       C1092   1.495       .  S
H997       C2174   1.079       .  S
C1001      C1002   1.520       .  S
C1001      C1007   1.518       .  S
C1001      C1005   1.519       .  S
C1002      H1009   1.086       .  S
C1002      C1003   1.362       .  D
C1003      C1004   1.579       .  S
C1003      C1099   1.495       .  S
C1004      C1008   1.576       .  S
C1004      C1006   1.543       .  S
C1004      H1010   1.109       .  S
C1005      H1011   1.081       .  S
C1005      C1006   1.367       .  D
C1007      H1012   1.078       .  S
C1007      C1008   1.388       .  D
C1008      C2199   1.542       .  S
C1013      C1014   1.509       .  S
C1013      C1019   1.519       .  S
C1013      C1017   1.533       .  S
C1014      H1021   1.079       .  S
C1014      C1015   1.379       .  D
C1015      C1016   1.585       .  S
C1015      C2192   1.541   1_455  S
C1016      C1020   1.584       .  S
C1016      H1022   1.108       .  S
C1018      C1030   1.512   1_545  S
C1019      H1024   1.087       .  S
C1019      C1020   1.356       .  D
C1020      C1044   1.497       .  S
C1025      C1026   1.519       .  S
C1025      C1031   1.511       .  S
C1025      C1029   1.530       .  S
C1026      H1033   1.087       .  S
C1026      C1027   1.355       .  D
C1027      C1028   1.580       .  S
C1027      C1051   1.492       .  S
C1028      C1032   1.582       .  S
C1028      C1030   1.548       .  S
C1028      H1034   1.108       .  S
C1029      H1035   1.078       .  S
C1029      C1030   1.370       .  D
C1031      H1036   1.080       .  S
C1031      C1032   1.383       .  D
C1037      C1150   1.505       .  S
C1037      C1038   1.506       .  S
C1037      C1043   1.524       .  S
C1037      C1041   1.529       .  S
C1038      H1045   1.079       .  S
C1038      C1039   1.379       .  D
C1039      C1040   1.579       .  S
C1039      C1104   1.542       .  S
C1040      C1044   1.588       .  S
C1040      C1042   1.544       .  S
C1040      H1046   1.109       .  S
C1041      H1047   1.079       .  S
C1041      C1042   1.368       .  D
C1043      H1048   1.086       .  S
C1043      C1044   1.364       .  D
C1049      C1165   1.502       .  S
C1049      C1050   1.522       .  S
C1049      C1055   1.503       .  S
C1049      C1053   1.532       .  S
C1050      H1057   1.086       .  S
C1050      C1051   1.363       .  D
C1051      C1052   1.586       .  S
C1052      C1056   1.581       .  S
C1052      C1054   1.544       .  S
C1052      H1058   1.109       .  S
C1053      H1059   1.078       .  S
C1053      C1054   1.368       .  D
C1055      H1060   1.079       .  S
C1055      C1056   1.378       .  D
C1056      C1087   1.540       .  S
C1061      C1147   1.507       .  S
C1061      C1062   1.505       .  S
C1061      C1067   1.524       .  S
C1061      C1065   1.532       .  S
C1062      H1069   1.079       .  S
C1062      C1063   1.380       .  D
C1063      C1064   1.578       .  S
C1063      C1128   1.539       .  S
C1064      C1068   1.580       .  S
C1064      C1066   1.543       .  S
C1064      H1070   1.109       .  S
C1065      H1071   1.079       .  S
C1065      C1066   1.370       .  D
C1066      C2262   1.513   1_455  S
C1067      H1072   1.086       .  S
C1067      C1068   1.363       .  D
C1073      C1139   1.514       .  S
C1073      C1074   1.530       .  S
C1073      C1079   1.507       .  S
C1073      C1077   1.528       .  S
C1074      H1081   1.086       .  S
C1074      C1075   1.368       .  D
C1075      C1076   1.581       .  S
C1076      C1080   1.576       .  S
C1076      C1078   1.549       .  S
C1076      H1082   1.109       .  S
C1077      H1083   1.079       .  S
C1077      C1078   1.368       .  D
C1078      C2250   1.513       .  S
C1079      H1084   1.079       .  S
C1079      C1080   1.382       .  D
C1080      C1111   1.539       .  S
C1085      C1176   1.508       .  S
C1085      C1086   1.505       .  S
C1085      C1091   1.523       .  S
C1085      C1089   1.528       .  S
C1086      H1093   1.079       .  S
C1086      C1087   1.380       .  D
C1087      C1088   1.578       .  S
C1088      C1092   1.585       .  S
C1088      C1090   1.547       .  S
C1088      H1094   1.109       .  S
C1089      H1095   1.079       .  S
C1089      C1090   1.368       .  D
C1091      H1096   1.086       .  S
C1091      C1092   1.365       .  D
C1097      C1137   1.510       .  S
C1097      C1098   1.523       .  S
C1097      C1103   1.508       .  S
C1097      C1101   1.531       .  S
C1098      H1105   1.086       .  S
C1098      C1099   1.364       .  D
C1099      C1100   1.584       .  S
C1100      C1104   1.579       .  S
C1100      C1102   1.545       .  S
C1100      H1106   1.109       .  S
C1101      H1107   1.078       .  S
C1101      C1102   1.370       .  D
C1103      H1108   1.079       .  S
C1103      C1104   1.381       .  D
C1109      C1173   1.505       .  S
C1109      C1110   1.509       .  S
C1109      C1115   1.525       .  S
C1109      C1113   1.533       .  S
C1110      H1117   1.080       .  S
C1110      C1111   1.378       .  D
C1111      C1112   1.581       .  S
C1112      C1116   1.585       .  S
C1112      C1114   1.541       .  S
C1112      H1118   1.109       .  S
C1113      H1119   1.079       .  S
C1113      C1114   1.368       .  D
C1114      C2310   1.510       .  S
C1115      H1120   1.086       .  S
C1115      C1116   1.363       .  D
C1121      C1163   1.499       .  S
C1121      C1122   1.522       .  S
C1121      C1127   1.504       .  S
C1121      C1125   1.532       .  S
C1122      H1129   1.086       .  S
C1122      C1123   1.362       .  D
C1123      C1124   1.587       .  S
C1124      C1128   1.579       .  S
C1124      C1126   1.544       .  S
C1124      H1130   1.109       .  S
C1125      H1131   1.079       .  S
C1125      C1126   1.368       .  D
C1126      C2298   1.510   1_455  S
C1127      H1132   1.080       .  S
C1127      C1128   1.377       .  D
In1133     O1135   2.143       .  S
In1133     O1136   2.264       .  S
In1133     O1144   2.252       .  S
In1133     O1138   2.238       .  S
In1133     O1140   2.262       .  S
In1133     O1141   2.249       .  S
In1133     O1142   2.143       .  S
In1133     O1145   2.248       .  S
C1134      C1152   1.438   1_655  S
C1134      O2324   1.267       .  A
C1134      O2326   1.257       .  A
C1137      O1144   1.272       .  A
C1137      O1138   1.254       .  A
C1139      O1141   1.255       .  A
C1139      O1145   1.271       .  A
O1140      C2318   1.267       .  A
O1142      C2318   1.257       .  A
C1143      C1182   1.439   1_545  S
In1146     O1148   2.268       .  S
In1146     O1149   2.150       .  S
In1146     O1157   2.240       .  S
In1146     O1151   2.241       .  S
In1146     O1153   2.245       .  S
In1146     O1154   2.144       .  S
In1146     O1155   2.236       .  S
In1146     O1158   2.265       .  S
C1147      O1153   1.269       .  A
C1147      O1155   1.253       .  A
C1150      O1157   1.253       .  A
C1150      O1151   1.270       .  A
C1152      O1154   1.257       .  A
C1152      O1158   1.267       .  A
C1156      C1160   1.436   1_545  S
In1159     O1161   2.144       .  S
In1159     O1162   2.260       .  S
In1159     O1170   2.231       .  S
In1159     O1164   2.222       .  S
In1159     O1166   2.256       .  S
In1159     O1167   2.228       .  S
In1159     O1168   2.147       .  S
In1159     O1171   2.229       .  S
C1160      O1166   1.266       .  A
C1160      O1168   1.258       .  A
O1161      C1169   1.257       .  A
O1162      C1169   1.266       .  A
C1163      O1170   1.270       .  A
C1163      O1164   1.254       .  A
C1165      O1167   1.254       .  A
C1165      O1171   1.270       .  A
C1169      C2362   1.437   1_455  S
In1172     O1174   2.272       .  S
In1172     O1175   2.133       .  S
In1172     O1183   2.244       .  S
In1172     O1177   2.242       .  S
In1172     O1179   2.252       .  S
In1172     O1180   2.141       .  S
In1172     O1181   2.230       .  S
In1172     O1184   2.267       .  S
C1173      O1179   1.272       .  A
C1173      O1181   1.253       .  A
O1174      C1182   1.268       .  A
O1175      C1182   1.256       .  A
C1176      O1183   1.254       .  A
C1176      O1177   1.271       .  A
C1178      C2353   1.437       .  S
C1178      O1180   1.256       .  A
C1178      O1184   1.267       .  A
In1185     O1187   2.189   1_554  S
In1185     O1188   2.265   1_554  S
In1185     O1196   2.180       .  S
In1185     O1190   2.255   1_554  S
In1185     O1192   2.278       .  S
In1185     O1193   2.247       .  S
In1185     O1194   2.218       .  S
In1185     O1197   2.213       .  S
C1186      C1199   1.460       .  S
O1187      C1195   1.263       .  A
O1188      C1195   1.275       .  A
C1189      C1215   1.438   1_554  S
C1189      O1196   1.256       .  A
C1189      O1190   1.264   1_554  A
C1191      O1193   1.268       .  A
C1191      O1197   1.255       .  A
C1191      C1533   1.500       .  S
C1195      C1273   1.506       .  S
In1198     O1200   2.215       .  S
In1198     O1201   2.258       .  S
In1198     O1209   2.253   1_554  S
In1198     O1203   2.195       .  S
In1198     O1205   2.278       .  S
In1198     O1206   2.278   1_554  S
In1198     O1207   2.220       .  S
In1198     O1210   2.199   1_554  S
C1199      O1205   1.260       .  A
C1199      O1207   1.254       .  A
O1200      C1208   1.255       .  A
O1201      C1208   1.270       .  A
C1202      C1228   1.438   1_554  S
C1202      O1209   1.263   1_554  A
C1202      O1203   1.254       .  A
C1204      O1206   1.278       .  A
C1204      O1210   1.264       .  A
C1204      C1261   1.513       .  S
C1208      C1545   1.509       .  S
In1211     O1213   2.183   1_556  S
In1211     O1214   2.274   1_556  S
In1211     O1222   2.195       .  S
In1211     O1216   2.255   1_556  S
In1211     O1218   2.274       .  S
In1211     O1219   2.266       .  S
In1211     O1220   2.222       .  S
In1211     O1223   2.205       .  S
C1212      C1225   1.460       .  S
O1213      C1221   1.262       .  A
O1214      C1221   1.279       .  A
C1215      O1222   1.253       .  A
C1215      O1216   1.262   1_556  A
C1217      O1219   1.273       .  A
C1217      O1223   1.256       .  A
C1217      C1237   1.508       .  S
C1221      C1569   1.507       .  S
In1224     O1226   2.200       .  S
In1224     O1227   2.259       .  S
In1224     O1235   2.261   1_556  S
In1224     O1229   2.180       .  S
In1224     O1231   2.275       .  S
In1224     O1232   2.262   1_556  S
In1224     O1233   2.221       .  S
In1224     O1236   2.198   1_556  S
C1225      O1231   1.261       .  A
C1225      O1233   1.255       .  A
O1226      C1234   1.255       .  A
O1227      C1234   1.270       .  A
C1228      O1235   1.264   1_556  A
C1228      O1229   1.255       .  A
C1230      O1232   1.275       .  A
C1230      O1236   1.264       .  A
C1230      C1557   1.508       .  S
C1234      C1249   1.502       .  S
C1237      C1238   1.511       .  S
C1237      C1243   1.519       .  S
C1237      C1241   1.534       .  S
C1238      H1245   1.080       .  S
C1238      C1831   1.381   1_545  D
C1239      C1832   1.584       .  S
C1239      C1830   1.378       .  D
C1239      C1280   1.538       .  S
C1240      C1831   1.583   1_545  S
C1240      C1244   1.582       .  S
C1240      H1246   1.108       .  S
C1242      C1254   1.513       .  S
C1243      H1248   1.086       .  S
C1243      C1244   1.356       .  D
C1244      C1364   1.495       .  S
C1249      C1250   1.518       .  S
C1249      C1255   1.511       .  S
C1249      C1253   1.529       .  S
C1250      H1257   1.087       .  S
C1250      C1251   1.354       .  D
C1251      C1252   1.584       .  S
C1251      C1371   1.498       .  S
C1252      C1256   1.584   1_545  S
C1252      C1254   1.551       .  S
C1252      H1258   1.108       .  S
C1253      H1259   1.078       .  S
C1253      C1254   1.370       .  D
C1255      H1260   1.079       .  S
C1255      C1256   1.382   1_545  D
C1256      C1855   1.541       .  S
C1261      C1262   1.519       .  S
C1261      C1267   1.523       .  S
C1261      C1265   1.522       .  S
C1262      H1269   1.079       .  S
C1262      C1263   1.387       .  D
C1263      C1264   1.580       .  S
C1263      C1848   1.542       .  S
C1264      C1268   1.582       .  S
C1264      C1266   1.542       .  S
C1264      H1270   1.109       .  S
C1265      H1271   1.079       .  S
C1265      C1266   1.365       .  D
C1267      H1272   1.086       .  S
C1267      C1268   1.364       .  D
C1268      C1388   1.501       .  S
C1273      C1274   1.515       .  S
C1273      C1279   1.516       .  S
C1273      C1277   1.519       .  S
C1274      H1281   1.087       .  S
C1274      C1275   1.358       .  D
C1275      C1276   1.576       .  S
C1275      C1395   1.487       .  S
C1276      C1280   1.575       .  S
C1276      C1278   1.547   1_655  S
C1276      H1282   1.109       .  S
C1277      H1283   1.079       .  S
C1277      C1278   1.369   1_655  D
C1279      H1284   1.079       .  S
C1279      C1280   1.388       .  D
C1285      C1487   1.511       .  S
C1285      C1286   1.517       .  S
C1285      C1291   1.519       .  S
C1285      C1289   1.520       .  S
C1286      H1293   1.083       .  S
C1286      C1287   1.367       .  D
C1287      C1288   1.545       .  S
C1287      C1894   1.501       .  S
C1288      C1292   1.574       .  S
C1288      C1290   1.579       .  S
C1288      H1294   1.108       .  S
C1289      H1295   1.086       .  S
C1289      C1290   1.363       .  D
C1290      C1352   1.495       .  S
C1291      H1296   1.079       .  S
C1291      C1292   1.388       .  D
C1297      C1504   1.512       .  S
C1297      C1298   1.519       .  S
C1297      C1303   1.516       .  S
C1297      C1301   1.524       .  S
C1298      H1305   1.086       .  S
C1298      C1299   1.363       .  D
C1299      C1300   1.582       .  S
C1299      C1335   1.498       .  S
C1300      C1304   1.581       .  S
C1300      C1302   1.541   1_545  S
C1300      H1306   1.109       .  S
C1301      H1307   1.081       .  S
C1301      C1302   1.370   1_545  D
C1302      C1879   1.508       .  S
C1303      H1308   1.079       .  S
C1303      C1304   1.385       .  D
C1304      C1311   1.541       .  S
C1309      C1526   1.508       .  S
C1309      C1310   1.510       .  S
C1309      C1315   1.522       .  S
C1309      C1313   1.532       .  S
C1312      C1316   1.577       .  S
C1312      C1906   1.545   1_545  S
C1312      H1318   1.108       .  S
C1313      H1911   1.077       .  S
C1313      C1906   1.373   1_545  D
C1314      C1904   1.547       .  S
C1314      C1905   1.372       .  D
C1314      C1326   1.514       .  S
C1315      H1320   1.087       .  S
C1315      C1316   1.357       .  D
C1316      C1412   1.491       .  S
H1319      C1905   1.077       .  S
C1321      C1517   1.504       .  S
C1321      C1322   1.517       .  S
C1321      C1327   1.510       .  S
C1321      C1325   1.532       .  S
C1322      H1329   1.087       .  S
C1322      C1323   1.356       .  D
C1323      C1324   1.589       .  S
C1323      C1419   1.501       .  S
C1324      C1328   1.587   1_655  S
C1324      C1326   1.548       .  S
C1324      H1330   1.108       .  S
C1325      H1331   1.077       .  S
C1325      C1326   1.371       .  D
C1327      H1332   1.079   1_655  S
C1327      C1328   1.379   1_655  D
C1333      C1448   1.508       .  S
C1333      C1334   1.526       .  S
C1333      C1339   1.504       .  S
C1333      C1337   1.528       .  S
C1334      H1341   1.086       .  S
C1334      C1335   1.365       .  D
C1335      C1336   1.584       .  S
C1336      C1340   1.578       .  S
C1336      C1338   1.549   1_545  S
C1336      H1342   1.109       .  S
C1337      H1343   1.079       .  S
C1337      C1338   1.367   1_545  D
C1338      C1942   1.514       .  S
C1339      H1344   1.078       .  S
C1339      C1340   1.381       .  D
C1340      C1407   1.539       .  S
C1345      C1456   1.511       .  S
C1345      C1346   1.506       .  S
C1345      C1351   1.524       .  S
C1345      C1349   1.530       .  S
C1346      H1353   1.079       .  S
C1346      C1347   1.381       .  D
C1347      C1348   1.580       .  S
C1347      C1424   1.544       .  S
C1348      C1352   1.583       .  S
C1348      C1350   1.548       .  S
C1348      H1354   1.109       .  S
C1349      H1355   1.079       .  S
C1349      C1350   1.371       .  D
C1350      C1930   1.514       .  S
C1351      H1356   1.086       .  S
C1351      C1352   1.364       .  D
C1357      C1433   1.499       .  S
C1357      C1358   1.503       .  S
C1357      C1363   1.524       .  S
C1357      C1361   1.528       .  S
C1358      H1365   1.079       .  S
C1358      C1359   1.379       .  D
C1359      C1360   1.582       .  S
C1359      C1400   1.541       .  S
C1360      C1364   1.584       .  S
C1360      C1362   1.548   1_655  S
C1360      H1366   1.109       .  S
C1361      H1367   1.079   1_655  S
C1361      C1362   1.367   1_655  D
C1363      H1368   1.086       .  S
C1363      C1364   1.362       .  D
C1369      C1446   1.506       .  S
C1369      C1370   1.524       .  S
C1369      C1375   1.510       .  S
C1369      C1373   1.536       .  S
C1370      H1377   1.086       .  S
C1370      C1371   1.365       .  D
C1371      C1372   1.591       .  S
C1372      C1376   1.582       .  S
C1372      C1374   1.537       .  S
C1372      H1378   1.109       .  S
C1373      H1379   1.079       .  S
C1373      C1374   1.369       .  D
C1375      H1380   1.082       .  S
C1375      C1376   1.375       .  D
C1376      C1383   1.541       .  S
C1381      C1459   1.513       .  S
C1381      C1382   1.505       .  S
C1381      C1387   1.528       .  S
C1381      C1385   1.523       .  S
C1382      H1389   1.079       .  S
C1382      C1383   1.383       .  D
C1383      C1384   1.575       .  S
C1384      C1388   1.582       .  S
C1384      C1386   1.552       .  S
C1384      H1390   1.109       .  S
C1385      H1391   1.079       .  S
C1385      C1386   1.368       .  D
C1387      H1392   1.086       .  S
C1387      C1388   1.367       .  D
C1393      C1472   1.509       .  S
C1393      C1394   1.523       .  S
C1393      C1399   1.511       .  S
C1393      C1397   1.533       .  S
C1394      H1401   1.087       .  S
C1394      C1395   1.363       .  D
C1395      C1396   1.580       .  S
C1396      C1400   1.578       .  S
C1396      C1398   1.538   1_655  S
C1396      H1402   1.109       .  S
C1397      H1403   1.079       .  S
C1397      C1398   1.370   1_655  D
C1399      H1404   1.080       .  S
C1399      C1400   1.381       .  D
C1405      C1430   1.497       .  S
C1405      C1406   1.506       .  S
C1405      C1411   1.519       .  S
C1405      C1409   1.532       .  S
C1406      H1413   1.079       .  S
C1406      C1407   1.377       .  D
C1407      C1408   1.580       .  S
C1408      C1412   1.588       .  S
C1408      C1410   1.546   1_545  S
C1408      H1414   1.109       .  S
C1409      H1415   1.078       .  S
C1409      C1410   1.366   1_545  D
C1410      C2014   1.511       .  S
C1411      H1416   1.087       .  S
C1411      C1412   1.361       .  D
C1417      C1474   1.511       .  S
C1417      C1418   1.528       .  S
C1417      C1423   1.509       .  S
C1417      C1421   1.534       .  S
C1418      H1425   1.086       .  S
C1418      C1419   1.366       .  D
C1419      C1420   1.589       .  S
C1420      C1424   1.581       .  S
C1420      C1422   1.539       .  S
C1420      H1426   1.109       .  S
C1421      H1427   1.080       .  S
C1421      C1422   1.369       .  D
C1422      C2002   1.510       .  S
C1423      H1428   1.080       .  S
C1423      C1424   1.378       .  D
In1429     O1431   2.260       .  S
In1429     O1432   2.147       .  S
In1429     O1440   2.227       .  S
In1429     O1434   2.232       .  S
In1429     O1436   2.231       .  S
In1429     O1437   2.145       .  S
In1429     O1438   2.225       .  S
In1429     O1441   2.261       .  S
C1430      O1436   1.269       .  A
C1430      O1438   1.253       .  A
C1433      O1440   1.253       .  A
C1433      O1434   1.269       .  A
C1435      C2061   1.436       .  S
C1435      O1437   1.257   1_565  A
C1435      O1441   1.266   1_565  A
C1439      C1452   1.438       .  S
In1442     O1444   2.150       .  S
In1442     O1445   2.262       .  S
In1442     O1453   2.247       .  S
In1442     O1447   2.241       .  S
In1442     O1449   2.268       .  S
In1442     O1450   2.238       .  S
In1442     O1451   2.140       .  S
In1442     O1454   2.243       .  S
C1443      C1461   1.439       .  S
C1443      O2041   1.267       .  A
C1443      O2043   1.256       .  A
O1444      C1452   1.257       .  A
O1445      C1452   1.266       .  A
C1446      O1453   1.270       .  A
C1446      O1447   1.253       .  A
C1448      O1450   1.253       .  A
C1448      O1454   1.271       .  A
O1449      C2035   1.267   1_545  A
O1451      C2035   1.256   1_545  A
In1455     O1457   2.260       .  S
In1455     O1458   2.146       .  S
In1455     O1466   2.247       .  S
In1455     O1460   2.241       .  S
In1455     O1462   2.247       .  S
In1455     O1463   2.140       .  S
In1455     O1464   2.245       .  S
In1455     O1467   2.264       .  S
C1456      O1462   1.270       .  A
C1456      O1464   1.255       .  A
O1457      C1465   1.267       .  A
O1458      C1465   1.257       .  A
C1459      O1466   1.256       .  A
C1459      O1460   1.270       .  A
C1461      O1463   1.257       .  A
C1461      O1467   1.267       .  A
C1465      C1478   1.438       .  S
In1468     O1470   2.151       .  S
In1468     O1471   2.263       .  S
In1468     O1479   2.256       .  S
In1468     O1473   2.236       .  S
In1468     O1475   2.268       .  S
In1468     O1476   2.245       .  S
In1468     O1477   2.145       .  S
In1468     O1480   2.247       .  S
C1469      C2027   1.440       .  S
C1469      O1475   1.267       .  A
C1469      O1477   1.256       .  A
C1472      O1479   1.271       .  A
C1472      O1473   1.254       .  A
C1474      O1476   1.254       .  A
C1474      O1480   1.271       .  A
In1481     O1483   2.219       .  S
In1481     O1484   2.250       .  S
In1481     O1492   2.248       .  S
In1481     O1486   2.185       .  S
In1481     O1488   2.284       .  S
In1481     O1489   2.264       .  S
In1481     O1490   2.213       .  S
In1481     O1493   2.202       .  S
C1482      C1495   1.460       .  S
C1482      O1488   1.261       .  A
C1482      O1490   1.254       .  A
O1483      C1491   1.255       .  A
O1484      C1491   1.268       .  A
C1485      C1511   1.436       .  S
C1485      O1492   1.263       .  A
C1485      O1486   1.256       .  A
C1487      O1489   1.276       .  A
C1487      O1493   1.264       .  A
C1491      C1617   1.505       .  S
In1494     O1496   2.199       .  S
In1494     O1497   2.267       .  S
In1494     O1505   2.187       .  S
In1494     O1499   2.253       .  S
In1494     O1501   2.270       .  S
In1494     O1502   2.257       .  S
In1494     O1503   2.212       .  S
In1494     O1506   2.216       .  S
C1495      O2093   1.260       .  A
C1495      O2095   1.253       .  A
O1496      C1504   1.264       .  A
O1497      C1504   1.278       .  A
C1498      C1524   1.437       .  S
C1498      O1505   1.255       .  A
C1498      O1499   1.263       .  A
C1500      O1502   1.270       .  A
C1500      O1506   1.256       .  A
C1500      C1605   1.509       .  S
O1501      C2087   1.261       .  A
O1503      C2087   1.254       .  A
In1507     O1509   2.215       .  S
In1507     O1510   2.252       .  S
In1507     O1518   2.250       .  S
In1507     O1512   2.192       .  S
In1507     O1514   2.287       .  S
In1507     O1515   2.271       .  S
In1507     O1516   2.213       .  S
In1507     O1519   2.194       .  S
C1508      C1521   1.461       .  S
C1508      O1514   1.262       .  A
C1508      O1516   1.254       .  A
O1509      C1517   1.256       .  A
O1510      C1517   1.270       .  A
C1511      O1518   1.262       .  A
C1511      O1512   1.255       .  A
C1513      O1515   1.277       .  A
C1513      O1519   1.264       .  A
C1513      C1581   1.510       .  S
In1520     O1522   2.195       .  S
In1520     O1523   2.266       .  S
In1520     O1531   2.191       .  S
In1520     O1525   2.250       .  S
In1520     O1527   2.289       .  S
In1520     O1528   2.252       .  S
In1520     O1529   2.208       .  S
In1520     O1532   2.218       .  S
C1521      O2119   1.262       .  A
C1521      O2121   1.254       .  A
O1522      C1530   1.264       .  A
O1523      C1530   1.277       .  A
C1524      O1531   1.256       .  A
C1524      O1525   1.262       .  A
C1526      O1528   1.268       .  A
C1526      O1532   1.256       .  A
O1527      C2113   1.262   1_545  A
O1529      C2113   1.253   1_545  A
C1530      C1593   1.508       .  S
C1533      C1534   1.529       .  S
C1533      C1539   1.510       .  S
C1533      C1537   1.517       .  S
C1535      C1550   1.513       .  S
C1536      C1540   1.583       .  S
C1536      C1538   1.584       .  S
C1536      H1542   1.108       .  S
C1537      H1543   1.087       .  S
C1537      C1538   1.355       .  D
C1538      C1708   1.495       .  S
C1539      H1544   1.079       .  S
C1539      C1540   1.380       .  D
C1540      C2168   1.539       .  S
C1545      C1546   1.521       .  S
C1545      C1551   1.509       .  S
C1545      C1549   1.535       .  S
C1546      H1553   1.087       .  S
C1546      C1547   1.356       .  D
C1547      C1548   1.581       .  S
C1547      C1715   1.495       .  S
C1548      C1552   1.586       .  S
C1548      C1550   1.543       .  S
C1548      H1554   1.108       .  S
C1549      H1555   1.079       .  S
C1549      C1550   1.375       .  D
C1551      H1556   1.079       .  S
C1551      C1552   1.379       .  D
C1552      C1559   1.542       .  S
C1557      C1558   1.519       .  S
C1557      C1563   1.514       .  S
C1557      C1561   1.522       .  S
C1558      H1565   1.079       .  S
C1558      C2151   1.388       .  D
C1559      C2152   1.577       .  S
C1559      C2150   1.388       .  D
C1560      C2151   1.572       .  S
C1560      C1564   1.579       .  S
C1560      C1562   1.543       .  S
C1560      H1566   1.109       .  S
C1561      H1567   1.079       .  S
C1561      C1562   1.370       .  D
C1563      H1568   1.087       .  S
C1563      C1564   1.359       .  D
C1564      C1660   1.488       .  S
C1569      C1570   1.523       .  S
C1569      C1575   1.513       .  S
C1569      C1573   1.522       .  S
C1570      H1577   1.087       .  S
C1570      C1571   1.361       .  D
C1571      C1572   1.580       .  S
C1571      C1667   1.499       .  S
C1572      C1576   1.585       .  S
C1572      C1574   1.546       .  S
C1572      H1578   1.109       .  S
C1573      H1579   1.080       .  S
C1573      C1574   1.365       .  D
C1575      H1580   1.079       .  S
C1575      C1576   1.385       .  D
C1576      C2132   1.543   1_545  S
C1581      C1582   1.516       .  S
C1581      C1587   1.522       .  S
C1581      C1585   1.518       .  S
C1583      C1624   1.540       .  S
C1584      C1588   1.579       .  S
C1584      C1586   1.546       .  S
C1584      H1590   1.109       .  S
C1585      H1591   1.081       .  S
C1585      C1586   1.365       .  D
C1586      C2190   1.502       .  S
C1587      H1592   1.087       .  S
C1587      C1588   1.362       .  D
C1588      C1684   1.498       .  S
C1593      C1594   1.518       .  S
C1593      C1599   1.516       .  S
C1593      C1597   1.519       .  S
C1594      H1601   1.086       .  S
C1594      C1595   1.362       .  D
C1595      C1596   1.586       .  S
C1595      C1691   1.502       .  S
C1596      C1600   1.581       .  S
C1596      C1598   1.549       .  S
C1596      H1602   1.109       .  S
C1597      H1603   1.079       .  S
C1597      C1598   1.365       .  D
C1598      C2178   1.508   1_545  S
C1599      H1604   1.079       .  S
C1599      C1600   1.386       .  D
C1605      C1606   1.512       .  S
C1605      C1611   1.519       .  S
C1605      C1609   1.531       .  S
C1606      H1613   1.079       .  S
C1606      C1607   1.382       .  D
C1607      C1608   1.581       .  S
C1608      C1612   1.581       .  S
C1608      C2202   1.547       .  S
C1608      H1614   1.108       .  S
C1609      H2207   1.078       .  S
C1609      C2202   1.373       .  D
C1610      C2200   1.548       .  S
C1610      C2201   1.371       .  D
C1610      C1622   1.515       .  S
C1611      H1616   1.087       .  S
C1611      C1612   1.356       .  D
C1612      C1636   1.492       .  S
H1615      C2201   1.078       .  S
C1617      C1618   1.517       .  S
C1617      C1623   1.510       .  S
C1617      C1621   1.533       .  S
C1618      H1625   1.086       .  S
C1618      C1619   1.356       .  D
C1619      C1620   1.582       .  S
C1619      C1643   1.493       .  S
C1620      C1624   1.584       .  S
C1620      C1622   1.547       .  S
C1620      H1626   1.108       .  S
C1621      H1627   1.078       .  S
C1621      C1622   1.372       .  D
C1623      H1628   1.079       .  S
C1623      C1624   1.380       .  D
C1629      C1742   1.505       .  S
C1629      C1630   1.508       .  S
C1629      C1635   1.521       .  S
C1629      C1633   1.534       .  S
C1630      H1637   1.080       .  S
C1630      C1631   1.379       .  D
C1631      C1632   1.580       .  S
C1631      C1696   1.543       .  S
C1632      C1636   1.586       .  S
C1632      C1634   1.542       .  S
C1632      H1638   1.109       .  S
C1633      H1639   1.078       .  S
C1633      C1634   1.370       .  D
C1634      C2238   1.512   1_545  S
C1635      H1640   1.086       .  S
C1635      C1636   1.361       .  D
C1641      C1757   1.501       .  S
C1641      C1642   1.525       .  S
C1641      C1647   1.506       .  S
C1641      C1645   1.531       .  S
C1642      H1649   1.086       .  S
C1642      C1643   1.363       .  D
C1643      C1644   1.584       .  S
C1644      C1648   1.580       .  S
C1644      C1646   1.541       .  S
C1644      H1650   1.109       .  S
C1645      H1651   1.079       .  S
C1645      C1646   1.367       .  D
C1646      C2226   1.509       .  S
C1647      H1652   1.080       .  S
C1647      C1648   1.379       .  D
C1648      C1679   1.541       .  S
C1653      C1739   1.507       .  S
C1653      C1654   1.503       .  S
C1653      C1659   1.525       .  S
C1653      C1657   1.527       .  S
C1654      H1661   1.079       .  S
C1654      C1655   1.383       .  D
C1655      C1656   1.576       .  S
C1655      C1720   1.541       .  S
C1656      C1660   1.577       .  S
C1656      C1658   1.548       .  S
C1656      H1662   1.109       .  S
C1657      H1663   1.078       .  S
C1657      C1658   1.369       .  D
C1659      H1664   1.086       .  S
C1659      C1660   1.363       .  D
C1665      C1731   1.515       .  S
C1665      C1666   1.525       .  S
C1665      C1671   1.510       .  S
C1665      C1669   1.531       .  S
C1666      H1673   1.086       .  S
C1666      C1667   1.364       .  D
C1667      C1668   1.585       .  S
C1668      C1672   1.578       .  S
C1668      C1670   1.543       .  S
C1668      H1674   1.109       .  S
C1669      H1675   1.078       .  S
C1669      C1670   1.370       .  D
C1671      H1676   1.079       .  S
C1671      C1672   1.383       .  D
C1672      C1703   1.542       .  S
C1677      C1768   1.509       .  S
C1677      C1678   1.505       .  S
C1677      C1683   1.526       .  S
C1677      C1681   1.530       .  S
C1678      H1685   1.079       .  S
C1678      C1679   1.380       .  D
C1679      C1680   1.580       .  S
C1680      C1684   1.583       .  S
C1680      C1682   1.547       .  S
C1680      H1686   1.109       .  S
C1681      H1687   1.078       .  S
C1681      C1682   1.369       .  D
C1682      C2286   1.514       .  S
C1683      H1688   1.086       .  S
C1683      C1684   1.365       .  D
C1689      C1729   1.514       .  S
C1689      C1690   1.530       .  S
C1689      C1695   1.506       .  S
C1689      C1693   1.529       .  S
C1690      H1697   1.086       .  S
C1690      C1691   1.368       .  D
C1691      C1692   1.583       .  S
C1692      C1696   1.581       .  S
C1692      C1694   1.545       .  S
C1692      H1698   1.109       .  S
C1693      H1699   1.079       .  S
C1693      C1694   1.370       .  D
C1694      C2274   1.513   1_545  S
C1695      H1700   1.079       .  S
C1695      C1696   1.380       .  D
C1701      C1765   1.504       .  S
C1701      C1702   1.505       .  S
C1701      C1707   1.526       .  S
C1701      C1705   1.533       .  S
C1702      H1709   1.079       .  S
C1702      C1703   1.377       .  D
C1703      C1704   1.582       .  S
C1704      C1708   1.584       .  S
C1704      C1706   1.544       .  S
C1704      H1710   1.109       .  S
C1705      H1711   1.079       .  S
C1705      C1706   1.369       .  D
C1707      H1712   1.085       .  S
C1707      C1708   1.364       .  D
C1713      C1755   1.497       .  S
C1713      C1714   1.518       .  S
C1713      C1719   1.508       .  S
C1713      C1717   1.537       .  S
C1714      H1721   1.086       .  S
C1714      C1715   1.360       .  D
C1715      C1716   1.593       .  S
C1716      C1720   1.583       .  S
C1716      C1718   1.541       .  S
C1716      H1722   1.109       .  S
C1717      H1723   1.079       .  S
C1717      C1718   1.368       .  D
C1719      H1724   1.081       .  S
C1719      C1720   1.374       .  D
In1725     O1727   2.135       .  S
In1725     O1728   2.274       .  S
In1725     O1736   2.251       .  S
In1725     O1730   2.250       .  S
In1725     O1732   2.253       .  S
In1725     O1733   2.247       .  S
In1725     O1734   2.155       .  S
In1725     O1737   2.253       .  S
C1726      C1744   1.437       .  S
O1727      C2327   1.256       .  A
O1728      C2327   1.267       .  A
C1729      O1736   1.272       .  A
C1729      O1730   1.254       .  A
C1731      O1733   1.255       .  A
C1731      O1737   1.270       .  A
C1735      C1774   1.438       .  S
C1735      O2319   1.256       .  A
C1735      O2320   1.267       .  A
In1738     O1740   2.255       .  S
In1738     O1741   2.145       .  S
In1738     O1749   2.226       .  S
In1738     O1743   2.242       .  S
In1738     O1745   2.233       .  S
In1738     O1746   2.154       .  S
In1738     O1747   2.232       .  S
In1738     O1750   2.250       .  S
C1739      O1745   1.271       .  A
C1739      O1747   1.256       .  A
O1740      C2340   1.266       .  A
O1741      C2340   1.257       .  A
C1742      O1749   1.255       .  A
C1742      O1743   1.271       .  A
C1744      O1746   1.257       .  A
C1744      O1750   1.266       .  A
C1748      C1752   1.440       .  S
C1748      O2332   1.266       .  A
C1748      O2333   1.256       .  A
In1751     O1753   2.144       .  S
In1751     O1754   2.276       .  S
In1751     O1762   2.239       .  S
In1751     O1756   2.224       .  S
In1751     O1758   2.269       .  S
In1751     O1759   2.234       .  S
In1751     O1760   2.151       .  S
In1751     O1763   2.237       .  S
C1752      O1758   1.266       .  A
C1752      O1760   1.256       .  A
O1753      C1761   1.256       .  A
O1754      C1761   1.267       .  A
C1755      O1762   1.269       .  A
C1755      O1756   1.252       .  A
C1757      O1759   1.253       .  A
C1757      O1763   1.269       .  A
In1764     O1766   2.263       .  S
In1764     O1767   2.141       .  S
In1764     O1775   2.237       .  S
In1764     O1769   2.243       .  S
In1764     O1771   2.239       .  S
In1764     O1772   2.142       .  S
In1764     O1773   2.233       .  S
In1764     O1776   2.272       .  S
C1765      O1771   1.271       .  A
C1765      O1773   1.254       .  A
O1766      C1774   1.267       .  A
O1767      C1774   1.257       .  A
C1768      O1775   1.254       .  A
C1768      O1769   1.271       .  A
C1770      O1772   1.256       .  A
C1770      O1776   1.267       .  A
In1777     O1779   2.188   1_554  S
In1777     O1780   2.262   1_554  S
In1777     O1788   2.184       .  S
In1777     O1782   2.252   1_554  S
In1777     O1784   2.279       .  S
In1777     O1785   2.254       .  S
In1777     O1786   2.216       .  S
In1777     O1789   2.221       .  S
C1778      C1791   1.458       .  S
O1779      C1787   1.263       .  A
O1780      C1787   1.277       .  A
C1781      C1807   1.437   1_554  S
C1781      O1788   1.255       .  A
C1781      O1782   1.264   1_554  A
C1783      O1785   1.269       .  A
C1783      O1789   1.256       .  A
C1783      C2125   1.507       .  S
C1787      C1865   1.505       .  S
In1790     O1792   2.211       .  S
In1790     O1793   2.254       .  S
In1790     O1801   2.249   1_554  S
In1790     O1795   2.179       .  S
In1790     O1797   2.273       .  S
In1790     O1798   2.266   1_554  S
In1790     O1799   2.215       .  S
In1790     O1802   2.197   1_554  S
C1791      O1797   1.260       .  A
C1791      O1799   1.255       .  A
O1792      C1800   1.255       .  A
O1793      C1800   1.270       .  A
C1794      C1820   1.435   1_554  S
C1794      O1801   1.264   1_554  A
C1794      O1795   1.255       .  A
C1796      O1798   1.277       .  A
C1796      O1802   1.263       .  A
C1796      C1853   1.509       .  S
C1800      C2137   1.504       .  S
In1803     O1805   2.201   1_556  S
In1803     O1806   2.275   1_556  S
In1803     O1814   2.193       .  S
In1803     O1808   2.251   1_556  S
In1803     O1810   2.274       .  S
In1803     O1811   2.260       .  S
In1803     O1812   2.224       .  S
In1803     O1815   2.211       .  S
C1804      C1817   1.459       .  S
O1805      C1813   1.264       .  A
O1806      C1813   1.278       .  A
C1807      O1814   1.254       .  A
C1807      O1808   1.263   1_556  A
C1809      O1811   1.270       .  A
C1809      O1815   1.254       .  A
C1809      C1829   1.506       .  S
C1813      C2161   1.514       .  S
In1816     O1818   2.212       .  S
In1816     O1819   2.255       .  S
In1816     O1827   2.259   1_556  S
In1816     O1821   2.176       .  S
In1816     O1823   2.271       .  S
In1816     O1824   2.268   1_556  S
In1816     O1825   2.221       .  S
In1816     O1828   2.196   1_556  S
C1817      O1823   1.261       .  A
C1817      O1825   1.256       .  A
O1818      C1826   1.255       .  A
O1819      C1826   1.269       .  A
C1820      O1827   1.263   1_556  A
C1820      O1821   1.255       .  A
C1822      O1824   1.276       .  A
C1822      O1828   1.264       .  A
C1822      C2149   1.509       .  S
C1826      C1841   1.505       .  S
C1829      C1830   1.510       .  S
C1829      C1835   1.520       .  S
C1829      C1833   1.539       .  S
C1830      H1837   1.081       .  S
C1831      C1872   1.540       .  S
C1832      C1836   1.577       .  S
C1832      H1838   1.108       .  S
C1834      C1846   1.513       .  S
C1835      H1840   1.087       .  S
C1835      C1836   1.355       .  D
C1836      C1956   1.488       .  S
C1841      C1842   1.520       .  S
C1841      C1847   1.511       .  S
C1841      C1845   1.527       .  S
C1842      H1849   1.087       .  S
C1842      C1843   1.357       .  D
C1843      C1844   1.587       .  S
C1843      C1963   1.505       .  S
C1844      C1848   1.583       .  S
C1844      C1846   1.555       .  S
C1844      H1850   1.108       .  S
C1845      H1851   1.078       .  S
C1845      C1846   1.368       .  D
C1847      H1852   1.079       .  S
C1847      C1848   1.382       .  D
C1853      C1854   1.517       .  S
C1853      C1859   1.520       .  S
C1853      C1857   1.523       .  S
C1854      H1861   1.078       .  S
C1854      C1855   1.386       .  D
C1855      C1856   1.579       .  S
C1856      C1860   1.581       .  S
C1856      C1858   1.542       .  S
C1856      H1862   1.109       .  S
C1857      H1863   1.074       .  S
C1857      C1858   1.368       .  D
C1859      H1864   1.087       .  S
C1859      C1860   1.362       .  D
C1860      C1980   1.497       .  S
C1865      C1866   1.517       .  S
C1865      C1871   1.513       .  S
C1865      C1869   1.521       .  S
C1866      H1873   1.087       .  S
C1866      C1867   1.359       .  D
C1867      C1868   1.577       .  S
C1867      C1987   1.491       .  S
C1868      C1872   1.579       .  S
C1868      C1870   1.547   1_655  S
C1868      H1874   1.109       .  S
C1869      H1875   1.075       .  S
C1869      C1870   1.368   1_655  D
C1871      H1876   1.078       .  S
C1871      C1872   1.386       .  D
C1877      C2079   1.502       .  S
C1877      C1878   1.519       .  S
C1877      C1883   1.511       .  S
C1877      C1881   1.518       .  S
C1878      H1885   1.080       .  S
C1878      C1879   1.364       .  D
C1879      C1880   1.550       .  S
C1880      C1884   1.585       .  S
C1880      C1882   1.583       .  S
C1880      H1886   1.109       .  S
C1881      H1887   1.087       .  S
C1881      C1882   1.361       .  D
C1882      C1944   1.498       .  S
C1883      H1888   1.078       .  S
C1883      C1884   1.383       .  D
C1889      C2096   1.505       .  S
C1889      C1890   1.519       .  S
C1889      C1895   1.517       .  S
C1889      C1893   1.517       .  S
C1890      H1897   1.086       .  S
C1890      C1891   1.360       .  D
C1891      C1892   1.573       .  S
C1891      C1927   1.488       .  S
C1892      C1896   1.576       .  S
C1892      C1894   1.544       .  S
C1892      H1898   1.109       .  S
C1893      H1899   1.083       .  S
C1893      C1894   1.364       .  D
C1895      H1900   1.078       .  S
C1895      C1896   1.390       .  D
C1896      C1903   1.541       .  S
C1901      C2118   1.502       .  S
C1901      C1902   1.509       .  S
C1901      C1907   1.518       .  S
C1901      C1905   1.533       .  S
C1904      C1908   1.585       .  S
C1904      H1910   1.108       .  S
C1906      C1918   1.510       .  S
C1907      H1912   1.087       .  S
C1907      C1908   1.355       .  D
C1908      C2004   1.497       .  S
C1913      C2109   1.510       .  S
C1913      C1914   1.520       .  S
C1913      C1919   1.514       .  S
C1913      C1917   1.530       .  S
C1914      H1921   1.087       .  S
C1914      C1915   1.356       .  D
C1915      C1916   1.580       .  S
C1915      C2011   1.494       .  S
C1916      C1920   1.578   1_655  S
C1916      C1918   1.547       .  S
C1916      H1922   1.108       .  S
C1917      H1923   1.076       .  S
C1917      C1918   1.370       .  D
C1919      H1924   1.079   1_655  S
C1919      C1920   1.385   1_655  D
C1925      C2040   1.506       .  S
C1925      C1926   1.521       .  S
C1925      C1931   1.507       .  S
C1925      C1929   1.532       .  S
C1926      H1933   1.086       .  S
C1926      C1927   1.363       .  D
C1927      C1928   1.583       .  S
C1928      C1932   1.578       .  S
C1928      C1930   1.545       .  S
C1928      H1934   1.109       .  S
C1929      H1935   1.079       .  S
C1929      C1930   1.369       .  D
C1931      H1936   1.079       .  S
C1931      C1932   1.381       .  D
C1932      C1999   1.541       .  S
C1937      C2048   1.512       .  S
C1937      C1938   1.506       .  S
C1937      C1943   1.528       .  S
C1937      C1941   1.531       .  S
C1938      H1945   1.079       .  S
C1938      C1939   1.380       .  D
C1939      C1940   1.580       .  S
C1939      C2016   1.541       .  S
C1940      C1944   1.582       .  S
C1940      C1942   1.544       .  S
C1940      H1946   1.109       .  S
C1941      H1947   1.079       .  S
C1941      C1942   1.371       .  D
C1943      H1948   1.086       .  S
C1943      C1944   1.366       .  D
C1949      C2025   1.500       .  S
C1949      C1950   1.508       .  S
C1949      C1955   1.518       .  S
C1949      C1953   1.532       .  S
C1950      H1957   1.080       .  S
C1950      C1951   1.378       .  D
C1951      C1952   1.579       .  S
C1951      C1992   1.540       .  S
C1952      C1956   1.587       .  S
C1952      C1954   1.541   1_655  S
C1952      H1958   1.109       .  S
C1953      H1959   1.079       .  S
C1953      C1954   1.369   1_655  D
C1955      H1960   1.086       .  S
C1955      C1956   1.360       .  D
C1961      C2038   1.506       .  S
C1961      C1962   1.530       .  S
C1961      C1967   1.508       .  S
C1961      C1965   1.528       .  S
C1962      H1969   1.086       .  S
C1962      C1963   1.366       .  D
C1963      C1964   1.587       .  S
C1964      C1968   1.582       .  S
C1964      C1966   1.543       .  S
C1964      H1970   1.109       .  S
C1965      H1971   1.079       .  S
C1965      C1966   1.366       .  D
C1967      H1972   1.079       .  S
C1967      C1968   1.379       .  D
C1968      C1975   1.543       .  S
C1973      C2051   1.511       .  S
C1973      C1974   1.509       .  S
C1973      C1979   1.524       .  S
C1973      C1977   1.531       .  S
C1974      H1981   1.079       .  S
C1974      C1975   1.381       .  D
C1975      C1976   1.579       .  S
C1976      C1980   1.585       .  S
C1976      C1978   1.547       .  S
C1976      H1982   1.109       .  S
C1977      H1983   1.079       .  S
C1977      C1978   1.369       .  D
C1979      H1984   1.086       .  S
C1979      C1980   1.364       .  D
C1985      C2064   1.509       .  S
C1985      C1986   1.525       .  S
C1985      C1991   1.503       .  S
C1985      C1989   1.531       .  S
C1986      H1993   1.086       .  S
C1986      C1987   1.364       .  D
C1987      C1988   1.579       .  S
C1988      C1992   1.579       .  S
C1988      C1990   1.546   1_655  S
C1988      H1994   1.109       .  S
C1989      H1995   1.079   1_655  S
C1989      C1990   1.370   1_655  D
C1991      H1996   1.079       .  S
C1991      C1992   1.380       .  D
C1997      C2022   1.498       .  S
C1997      C1998   1.502       .  S
C1997      C2003   1.524       .  S
C1997      C2001   1.530       .  S
C1998      H2005   1.079       .  S
C1998      C1999   1.377       .  D
C1999      C2000   1.582       .  S
C2000      C2004   1.588       .  S
C2000      C2002   1.546       .  S
C2000      H2006   1.109       .  S
C2001      H2007   1.079       .  S
C2001      C2002   1.367       .  D
C2003      H2008   1.086       .  S
C2003      C2004   1.363       .  D
C2009      C2066   1.511       .  S
C2009      C2010   1.524       .  S
C2009      C2015   1.509       .  S
C2009      C2013   1.534       .  S
C2010      H2017   1.086       .  S
C2010      C2011   1.363       .  D
C2011      C2012   1.583       .  S
C2012      C2016   1.579       .  S
C2012      C2014   1.540       .  S
C2012      H2018   1.109       .  S
C2013      H2019   1.078       .  S
C2013      C2014   1.372       .  D
C2015      H2020   1.079       .  S
C2015      C2016   1.380       .  D
In2021     O2023   2.265       .  S
In2021     O2024   2.136       .  S
In2021     O2032   2.229       .  S
In2021     O2026   2.241       .  S
In2021     O2028   2.235       .  S
In2021     O2029   2.141       .  S
In2021     O2030   2.224       .  S
In2021     O2033   2.272       .  S
C2022      O2028   1.270       .  A
C2022      O2030   1.251       .  A
C2025      O2032   1.253       .  A
C2025      O2026   1.269       .  A
C2027      O2029   1.256       .  A
C2027      O2033   1.268       .  A
C2031      C2044   1.436       .  S
In2034     O2036   2.140       .  S
In2034     O2037   2.269       .  S
In2034     O2045   2.247       .  S
In2034     O2039   2.239       .  S
In2034     O2041   2.269       .  S
In2034     O2042   2.241       .  S
In2034     O2043   2.143       .  S
In2034     O2046   2.242       .  S
C2035      C2053   1.437       .  S
O2036      C2044   1.255       .  A
O2037      C2044   1.266       .  A
C2038      O2045   1.271       .  A
C2038      O2039   1.253       .  A
C2040      O2042   1.253       .  A
C2040      O2046   1.269       .  A
In2047     O2049   2.260       .  S
In2047     O2050   2.151       .  S
In2047     O2058   2.242       .  S
In2047     O2052   2.247       .  S
In2047     O2054   2.249       .  S
In2047     O2055   2.138       .  S
In2047     O2056   2.242       .  S
In2047     O2059   2.264       .  S
C2048      O2054   1.271       .  A
C2048      O2056   1.255       .  A
O2049      C2057   1.267       .  A
O2050      C2057   1.258       .  A
C2051      O2058   1.255       .  A
C2051      O2052   1.271       .  A
C2053      O2055   1.257       .  A
C2053      O2059   1.267       .  A
C2057      C2070   1.440       .  S
In2060     O2062   2.150       .  S
In2060     O2063   2.264       .  S
In2060     O2071   2.240       .  S
In2060     O2065   2.240       .  S
In2060     O2067   2.262       .  S
In2060     O2068   2.241       .  S
In2060     O2069   2.142       .  S
In2060     O2072   2.250       .  S
C2061      O2067   1.266       .  A
C2061      O2069   1.255       .  A
C2064      O2071   1.270       .  A
C2064      O2065   1.255       .  A
C2066      O2068   1.255       .  A
C2066      O2072   1.270       .  A
In2073     O2075   2.205       .  S
In2073     O2076   2.261       .  S
In2073     O2084   2.251       .  S
In2073     O2078   2.173       .  S
In2073     O2080   2.267       .  S
In2073     O2081   2.260       .  S
In2073     O2082   2.222       .  S
In2073     O2085   2.191       .  S
C2074      C2087   1.456   1_565  S
C2074      O2080   1.259       .  A
C2074      O2082   1.255       .  A
O2075      C2083   1.255       .  A
O2076      C2083   1.270       .  A
C2077      C2103   1.438       .  S
C2077      O2084   1.264       .  A
C2077      O2078   1.255       .  A
C2079      O2081   1.276       .  A
C2079      O2085   1.263       .  A
C2083      C2209   1.504       .  S
In2086     O2088   2.187       .  S
In2086     O2089   2.268       .  S
In2086     O2097   2.181       .  S
In2086     O2091   2.247       .  S
In2086     O2093   2.289       .  S
In2086     O2094   2.242       .  S
In2086     O2095   2.215       .  S
In2086     O2098   2.221       .  S
O2088      C2096   1.264       .  A
O2089      C2096   1.275       .  A
C2090      C2116   1.435       .  S
C2090      O2097   1.257       .  A
C2090      O2091   1.263       .  A
C2092      O2094   1.266       .  A
C2092      O2098   1.256       .  A
C2092      C2197   1.504       .  S
In2099     O2101   2.215       .  S
In2099     O2102   2.262       .  S
In2099     O2110   2.245       .  S
In2099     O2104   2.212       .  S
In2099     O2106   2.291       .  S
In2099     O2107   2.271       .  S
In2099     O2108   2.211       .  S
In2099     O2111   2.188       .  S
C2100      C2113   1.460       .  S
C2100      O2106   1.261       .  A
C2100      O2108   1.253       .  A
O2101      C2109   1.256       .  A
O2102      C2109   1.270       .  A
C2103      O2110   1.259       .  A
C2103      O2104   1.254       .  A
C2105      O2107   1.279       .  A
C2105      O2111   1.263       .  A
C2105      C2173   1.509       .  S
In2112     O2114   2.196       .  S
In2112     O2115   2.264       .  S
In2112     O2123   2.197       .  S
In2112     O2117   2.244       .  S
In2112     O2119   2.286       .  S
In2112     O2120   2.252       .  S
In2112     O2121   2.212       .  S
In2112     O2124   2.202       .  S
O2114      C2122   1.265       .  A
O2115      C2122   1.277       .  A
C2116      O2123   1.254       .  A
C2116      O2117   1.261       .  A
C2118      O2120   1.271       .  A
C2118      O2124   1.255       .  A
C2122      C2185   1.509       .  S
C2125      C2126   1.529       .  S
C2125      C2131   1.513       .  S
C2125      C2129   1.519       .  S
C2127      C2142   1.511       .  S
C2128      C2132   1.581       .  S
C2128      C2130   1.584       .  S
C2128      H2134   1.108       .  S
C2129      H2135   1.087       .  S
C2129      C2130   1.357       .  D
C2130      C2300   1.497       .  S
C2131      H2136   1.079       .  S
C2131      C2132   1.384       .  D
C2137      C2138   1.520       .  S
C2137      C2143   1.509       .  S
C2137      C2141   1.532       .  S
C2138      H2145   1.087       .  S
C2138      C2139   1.357       .  D
C2139      C2140   1.579       .  S
C2139      C2307   1.493       .  S
C2140      C2144   1.585       .  S
C2140      C2142   1.545       .  S
C2140      H2146   1.108       .  S
C2141      H2147   1.078       .  S
C2141      C2142   1.372       .  D
C2143      H2148   1.079       .  S
C2143      C2144   1.378       .  D
C2144      C2151   1.538   1_565  S
C2149      C2150   1.517       .  S
C2149      C2155   1.516       .  S
C2149      C2153   1.521       .  S
C2150      H2157   1.078       .  S
C2152      C2156   1.578       .  S
C2152      C2154   1.544       .  S
C2152      H2158   1.109       .  S
C2153      H2159   1.077       .  S
C2153      C2154   1.368       .  D
C2155      H2160   1.087       .  S
C2155      C2156   1.359       .  D
C2156      C2252   1.489       .  S
C2161      C2162   1.523       .  S
C2161      C2167   1.517       .  S
C2161      C2165   1.520       .  S
C2162      H2169   1.086       .  S
C2162      C2163   1.364       .  D
C2163      C2164   1.579       .  S
C2163      C2259   1.501       .  S
C2164      C2168   1.577       .  S
C2164      C2166   1.545       .  S
C2164      H2170   1.109       .  S
C2165      H2171   1.077       .  S
C2165      C2166   1.366       .  D
C2167      H2172   1.078       .  S
C2167      C2168   1.388       .  D
C2173      C2174   1.512       .  S
C2173      C2179   1.522       .  S
C2173      C2177   1.522       .  S
C2175      C2216   1.539       .  S
C2176      C2180   1.577       .  S
C2176      C2178   1.543       .  S
C2176      H2182   1.109       .  S
C2177      H2183   1.080       .  S
C2177      C2178   1.369       .  D
C2179      H2184   1.087       .  S
C2179      C2180   1.362       .  D
C2180      C2276   1.495       .  S
C2185      C2186   1.520       .  S
C2185      C2191   1.518       .  S
C2185      C2189   1.519       .  S
C2186      H2193   1.086       .  S
C2186      C2187   1.362       .  D
C2187      C2188   1.579       .  S
C2187      C2283   1.495       .  S
C2188      C2192   1.576       .  S
C2188      C2190   1.543       .  S
C2188      H2194   1.109       .  S
C2189      H2195   1.081       .  S
C2189      C2190   1.367       .  D
C2191      H2196   1.078       .  S
C2191      C2192   1.388       .  D
C2197      C2198   1.509       .  S
C2197      C2203   1.519       .  S
C2197      C2201   1.533       .  S
C2198      H2205   1.079       .  S
C2198      C2199   1.379       .  D
C2199      C2200   1.585       .  S
C2200      C2204   1.584       .  S
C2200      H2206   1.108       .  S
C2202      C2214   1.512   1_545  S
C2203      H2208   1.087       .  S
C2203      C2204   1.356       .  D
C2204      C2228   1.497       .  S
C2209      C2210   1.519       .  S
C2209      C2215   1.511       .  S
C2209      C2213   1.530       .  S
C2210      H2217   1.087       .  S
C2210      C2211   1.355       .  D
C2211      C2212   1.580       .  S
C2211      C2235   1.492       .  S
C2212      C2216   1.582       .  S
C2212      C2214   1.548       .  S
C2212      H2218   1.108       .  S
C2213      H2219   1.078       .  S
C2213      C2214   1.370       .  D
C2215      H2220   1.080       .  S
C2215      C2216   1.383       .  D
C2221      C2334   1.505       .  S
C2221      C2222   1.507       .  S
C2221      C2227   1.524       .  S
C2221      C2225   1.529       .  S
C2222      H2229   1.079       .  S
C2222      C2223   1.379       .  D
C2223      C2224   1.579       .  S
C2223      C2288   1.542       .  S
C2224      C2228   1.588       .  S
C2224      C2226   1.544       .  S
C2224      H2230   1.109       .  S
C2225      H2231   1.079       .  S
C2225      C2226   1.368       .  D
C2227      H2232   1.086       .  S
C2227      C2228   1.364       .  D
C2233      C2349   1.502       .  S
C2233      C2234   1.522       .  S
C2233      C2239   1.503       .  S
C2233      C2237   1.532       .  S
C2234      H2241   1.086       .  S
C2234      C2235   1.363       .  D
C2235      C2236   1.586       .  S
C2236      C2240   1.581       .  S
C2236      C2238   1.544       .  S
C2236      H2242   1.109       .  S
C2237      H2243   1.078       .  S
C2237      C2238   1.368       .  D
C2239      H2244   1.079       .  S
C2239      C2240   1.378       .  D
C2240      C2271   1.541       .  S
C2245      C2331   1.507       .  S
C2245      C2246   1.505       .  S
C2245      C2251   1.524       .  S
C2245      C2249   1.532       .  S
C2246      H2253   1.079       .  S
C2246      C2247   1.380       .  D
C2247      C2248   1.578       .  S
C2247      C2312   1.539       .  S
C2248      C2252   1.580       .  S
C2248      C2250   1.543       .  S
C2248      H2254   1.109       .  S
C2249      H2255   1.079       .  S
C2249      C2250   1.370       .  D
C2251      H2256   1.086       .  S
C2251      C2252   1.364       .  D
C2257      C2323   1.514       .  S
C2257      C2258   1.530       .  S
C2257      C2263   1.507       .  S
C2257      C2261   1.528       .  S
C2258      H2265   1.086       .  S
C2258      C2259   1.368       .  D
C2259      C2260   1.581       .  S
C2260      C2264   1.576       .  S
C2260      C2262   1.549       .  S
C2260      H2266   1.109       .  S
C2261      H2267   1.079       .  S
C2261      C2262   1.368       .  D
C2263      H2268   1.079       .  S
C2263      C2264   1.382       .  D
C2264      C2295   1.540       .  S
C2269      C2360   1.508       .  S
C2269      C2270   1.505       .  S
C2269      C2275   1.523       .  S
C2269      C2273   1.528       .  S
C2270      H2277   1.079       .  S
C2270      C2271   1.380       .  D
C2271      C2272   1.578       .  S
C2272      C2276   1.585       .  S
C2272      C2274   1.547       .  S
C2272      H2278   1.109       .  S
C2273      H2279   1.079       .  S
C2273      C2274   1.368       .  D
C2275      H2280   1.086       .  S
C2275      C2276   1.365       .  D
C2281      C2321   1.510       .  S
C2281      C2282   1.524       .  S
C2281      C2287   1.508       .  S
C2281      C2285   1.531       .  S
C2282      H2289   1.086       .  S
C2282      C2283   1.364       .  D
C2283      C2284   1.584       .  S
C2284      C2288   1.579       .  S
C2284      C2286   1.545       .  S
C2284      H2290   1.109       .  S
C2285      H2291   1.078       .  S
C2285      C2286   1.370       .  D
C2287      H2292   1.079       .  S
C2287      C2288   1.381       .  D
C2293      C2357   1.505       .  S
C2293      C2294   1.509       .  S
C2293      C2299   1.525       .  S
C2293      C2297   1.533       .  S
C2294      H2301   1.080       .  S
C2294      C2295   1.378       .  D
C2295      C2296   1.581       .  S
C2296      C2300   1.585       .  S
C2296      C2298   1.541       .  S
C2296      H2302   1.109       .  S
C2297      H2303   1.079       .  S
C2297      C2298   1.368       .  D
C2299      H2304   1.086       .  S
C2299      C2300   1.363       .  D
C2305      C2347   1.499       .  S
C2305      C2306   1.522       .  S
C2305      C2311   1.504       .  S
C2305      C2309   1.532       .  S
C2306      H2313   1.086       .  S
C2306      C2307   1.362       .  D
C2307      C2308   1.587       .  S
C2308      C2312   1.579       .  S
C2308      C2310   1.544       .  S
C2308      H2314   1.109       .  S
C2309      H2315   1.079       .  S
C2309      C2310   1.369       .  D
C2311      H2316   1.080       .  S
C2311      C2312   1.377       .  D
In2317     O2319   2.143       .  S
In2317     O2320   2.264       .  S
In2317     O2328   2.252       .  S
In2317     O2322   2.238       .  S
In2317     O2324   2.262       .  S
In2317     O2325   2.249       .  S
In2317     O2326   2.143       .  S
In2317     O2329   2.248       .  S
C2318      C2336   1.438       .  S
C2321      O2328   1.272       .  A
C2321      O2322   1.254       .  A
C2323      O2325   1.255       .  A
C2323      O2329   1.271       .  A
C2327      C2366   1.439   1_545  S
In2330     O2332   2.268       .  S
In2330     O2333   2.150       .  S
In2330     O2341   2.240       .  S
In2330     O2335   2.241       .  S
In2330     O2337   2.244       .  S
In2330     O2338   2.144       .  S
In2330     O2339   2.236       .  S
In2330     O2342   2.265       .  S
C2331      O2337   1.269       .  A
C2331      O2339   1.253       .  A
C2334      O2341   1.253       .  A
C2334      O2335   1.270       .  A
C2336      O2338   1.257       .  A
C2336      O2342   1.267       .  A
C2340      C2344   1.436   1_545  S
In2343     O2345   2.144       .  S
In2343     O2346   2.260       .  S
In2343     O2354   2.231       .  S
In2343     O2348   2.222       .  S
In2343     O2350   2.256       .  S
In2343     O2351   2.228       .  S
In2343     O2352   2.147       .  S
In2343     O2355   2.229       .  S
C2344      O2350   1.266       .  A
C2344      O2352   1.258       .  A
O2345      C2353   1.257       .  A
O2346      C2353   1.266       .  A
C2347      O2354   1.270       .  A
C2347      O2348   1.254       .  A
C2349      O2351   1.254       .  A
C2349      O2355   1.270       .  A
In2356     O2358   2.272       .  S
In2356     O2359   2.133       .  S
In2356     O2367   2.244       .  S
In2356     O2361   2.242       .  S
In2356     O2363   2.252       .  S
In2356     O2364   2.141       .  S
In2356     O2365   2.230       .  S
In2356     O2368   2.267       .  S
C2357      O2363   1.272       .  A
C2357      O2365   1.253       .  A
O2358      C2366   1.268       .  A
O2359      C2366   1.256       .  A
C2360      O2367   1.254       .  A
C2360      O2361   1.271       .  A
C2362      O2364   1.256       .  A
C2362      O2368   1.267       .  A
