geometry optimzed in LAMMPS
_audit_creation_date              2020-11-30 
_audit_creation_method            'lammps2cif' 
_symmetry_space_group_name_H-M    'P1' 
_symmetry_Int_Tables_number       1 
_symmetry_cell_setting            triclinic 
loop_ 
_symmetry_equiv_pos_as_xyz 
  x,y,z 
_cell_length_a                    25.999753202855917 
_cell_length_b                    25.942241561452114 
_cell_length_c                    26.285631649045 
_cell_angle_alpha                 89.56020716901558 
_cell_angle_beta                  89.94667767881288 
_cell_angle_gamma                 89.54889199486033 
loop_ 
_atom_site_label 
_atom_site_type_symbol 
_atom_site_fract_x 
_atom_site_fract_y 
_atom_site_fract_z 
_atom_site_charge 
C1          C  0.86839598  0.86850253  0.86697234    -0.03500
N2          N  0.76933260  0.92986604  0.41384756    -0.07130
N3          N  0.73195519  0.93996617  0.44703192    -0.59250
N4          N  0.82163441  0.96964292  0.30438757    -0.06810
N5          N  0.82154532  0.00429668  0.26790402    -0.61380
N6          N  0.78658719  0.93447821  0.29688663    -0.06410
N7          N  0.76238414  0.94362635  0.25423419    -0.59220
N8          N  0.80633338  0.96360241  0.41897689    -0.06080
N9          N  0.79506372  0.99692535  0.45518236    -0.61730
C10         C  0.74867207  0.98192332  0.47309536     0.95050
C11         C  0.78493985  0.98688747  0.23672863     0.94830
N12         N  0.97437845  0.93353657  0.31534357    -0.07310
N13         N  0.01275395  0.94611324  0.28459987    -0.59830
N14         N  0.92410684  0.95540670  0.42832948    -0.05430
N15         N  0.93361967  0.99031837  0.46234562    -0.61080
N16         N  0.95948338  0.91902688  0.42884847    -0.07340
N17         N  0.99446247  0.92824609  0.46315951    -0.60090
N18         N  0.93901864  0.96984983  0.31488773    -0.05080
N19         N  0.95254012  0.00778155  0.28383451    -0.61170
Mn20       Mn  0.87243945  0.96590199  0.36690369     1.18440
C21         C  0.99879535  0.99268755  0.26489868     0.97130
C22         C  0.97710365  0.97237783  0.48329612     0.97790
N23         N  0.77511978  0.81407546  0.28804424    -0.07360
N24         N  0.73705711  0.80224910  0.25670587    -0.63670
N25         N  0.80475432  0.77096625  0.40159437    -0.06170
N26         N  0.79244643  0.73417079  0.43356907    -0.64350
N27         N  0.76976266  0.80793869  0.40174103    -0.06870
N28         N  0.73264251  0.79741249  0.43372566    -0.63940
N29         N  0.81041707  0.77743632  0.28770245    -0.05770
N30         N  0.79667627  0.74038896  0.25610788    -0.64630
Mn31       Mn  0.77337407  0.87220064  0.35009562     1.10660
C32         C  0.75087272  0.75623397  0.23628609     0.98350
C33         C  0.74762056  0.75151125  0.45264147     0.98430
N34         N  0.96188828  0.79947927  0.41959222    -0.06880
N35         N  0.99507985  0.78505767  0.45523533    -0.62250
N36         N  0.93196100  0.78261420  0.29680279    -0.06200
N37         N  0.94107586  0.75759885  0.25472492    -0.58980
N38         N  0.96856813  0.81603442  0.30504609    -0.07510
N39         N  0.00385133  0.81424786  0.26956363    -0.61820
N40         N  0.92682081  0.76386178  0.41300300    -0.06490
N41         N  0.93599571  0.72419125  0.44413871    -0.59000
Mn42       Mn  0.96744656  0.86659844  0.36767415     1.20190
Mn43       Mn  0.86895556  0.77189705  0.34962032     1.10090
Cl44       Cl  0.87031618  0.86884134  0.35887030    -0.86970
C45         C  0.97837047  0.73828037  0.47086356     0.95360
C46         C  0.98561857  0.77823761  0.23830305     0.95160
N47         N  0.95953036  0.43288657  0.91673698    -0.07130
N48         N  0.99570316  0.46551312  0.92770441    -0.59250
N49         N  0.93750463  0.31823690  0.96411753    -0.06810
N50         N  0.95186674  0.28862902  0.00286631    -0.61380
N51         N  0.97240635  0.31745255  0.92808810    -0.06410
N52         N  0.01124773  0.28679510  0.94142337    -0.59220
N53         N  0.92369707  0.43272341  0.95209160    -0.06080
N54         N  0.93438506  0.46508831  0.98816305    -0.61730
C55         C  0.97883205  0.48477755  0.97184151     0.95050
C56         C  0.99795184  0.26911155  0.98831797     0.94830
N57         N  0.78524088  0.30195433  0.92495346    -0.07310
N58         N  0.75951039  0.25982460  0.93436474    -0.59830
N59         N  0.80428784  0.42387083  0.96062501    -0.05430
N60         N  0.79031221  0.45629683  0.99688431    -0.61080
N61         N  0.76762939  0.41967894  0.92662110    -0.07340
N62         N  0.72821131  0.45000206  0.93876828    -0.60090
N63         N  0.82059377  0.30830026  0.95994508    -0.05080
N64         N  0.81975668  0.27144217  0.99407199    -0.61170
Mn65       Mn  0.87121088  0.37131648  0.96015192     1.18440
C66         C  0.78204913  0.24139283  0.97716660     0.97130
C67         C  0.74288185  0.47284798  0.98270497     0.97790
N68         N  0.96387558  0.31003378  0.81133287    -0.07360
N69         N  0.99334346  0.26899908  0.81261502    -0.63670
N70         N  0.92968648  0.42436882  0.76264409    -0.06170
N71         N  0.94148856  0.45535006  0.72388506    -0.64350
N72         N  0.96506183  0.42728871  0.79809417    -0.06870
N73         N  0.00115515  0.46042167  0.78433160    -0.63940
N74         N  0.92781976  0.30597215  0.77669741    -0.05770
N75         N  0.93174344  0.26146965  0.75381126    -0.64630
Mn76       Mn  0.96667067  0.37223373  0.86309923     1.10660
C77         C  0.97272452  0.23909108  0.77675536     0.98350
C78         C  0.98628959  0.47805946  0.73781376     0.98430
N79         N  0.77208053  0.41937636  0.80847171    -0.06880
N80         N  0.74127928  0.45954879  0.80628777    -0.62250
N81         N  0.80804133  0.30380992  0.76787615    -0.06200
N82         N  0.79610485  0.27227941  0.73020626    -0.58980
N83         N  0.77309574  0.30137742  0.80397137    -0.07510
N84         N  0.73657150  0.26832360  0.79115192    -0.61820
N85         N  0.80818088  0.42241338  0.77345107    -0.06490
N86         N  0.80299928  0.46515025  0.74696842    -0.59000
Mn87       Mn  0.77232692  0.35986751  0.86601827     1.20190
Mn88       Mn  0.86846140  0.36431835  0.76779361     1.10090
Cl89       Cl  0.86943207  0.36725686  0.86396410    -0.86970
C90         C  0.76161830  0.48790153  0.76842683     0.95360
C91         C  0.75179145  0.24956930  0.74533667     0.95160
N92         N  0.42294173  0.77066491  0.93212660    -0.07130
N93         N  0.45678846  0.73393963  0.94398043    -0.59250
N94         N  0.30835794  0.82000300  0.96140592    -0.06810
N95         N  0.26897209  0.82023525  0.99228741    -0.61380
N96         N  0.30428572  0.78405062  0.92684259    -0.06410
N97         N  0.26129505  0.75891155  0.93334252    -0.59220
N98         N  0.42502517  0.80786711  0.96558891    -0.06080
N99         N  0.45988347  0.79727619  0.00089214    -0.61730
C100        C  0.48023413  0.75147895  0.98656462     0.95050
C101        C  0.23989567  0.78234693  0.97404879     0.94830
N102        N  0.31622174  0.97291764  0.92885658    -0.07310
N103        N  0.28463471  0.01138335  0.94042815    -0.59830
N104        N  0.43006280  0.92634169  0.95737998    -0.05430
N105        N  0.46315626  0.93613677  0.99311479    -0.61080
N106        N  0.43136447  0.96162887  0.92131883    -0.07340
N107        N  0.46527635  0.99682384  0.93139899    -0.60090
N108        N  0.31470435  0.93715364  0.96429441    -0.05080
N109        N  0.28187075  0.95022488  0.00055613    -0.61170
Mn110      Mn  0.36980851  0.87241039  0.96352918     1.18440
C111        C  0.26322774  0.99673612  0.98530133     0.97130
C112        C  0.48426261  0.97968426  0.97577822     0.97790
N113        N  0.30733058  0.77121348  0.80675038    -0.07360
N114        N  0.27665859  0.73304561  0.79292349    -0.63670
N115        N  0.42654558  0.80979668  0.77886702    -0.06170
N116        N  0.46897783  0.80486455  0.75239520    -0.64350
N117        N  0.42421488  0.77373923  0.81425193    -0.06870
N118        N  0.46444940  0.74309733  0.81224139    -0.63940
N119        N  0.30843594  0.80692480  0.77102899    -0.05770
N120        N  0.27807696  0.79394222  0.73274767    -0.64630
Mn121      Mn  0.36412875  0.77256462  0.87023654     1.10660
C122        C  0.25812765  0.74770981  0.74662973     0.98350
C123        C  0.49218761  0.76355262  0.77407952     0.98430
N124        N  0.42885825  0.96621067  0.80271175    -0.06880
N125        N  0.46203633  0.00247281  0.78961489    -0.62250
N126        N  0.30808010  0.92808066  0.77866968    -0.06200
N127        N  0.26347277  0.93184624  0.75567280    -0.58980
N128        N  0.31192847  0.96420269  0.81312283    -0.07510
N129        N  0.27068493  0.99313233  0.81462264    -0.61820
N130        N  0.42649838  0.93094178  0.76726629    -0.06490
N131        N  0.45796646  0.94293326  0.72916267    -0.59000
Mn132      Mn  0.37264495  0.96773390  0.86597639     1.20190
Mn133      Mn  0.36731861  0.86899505  0.77150753     1.10090
Cl134      Cl  0.36862097  0.87029560  0.86759251    -0.86970
C135        C  0.48067862  0.98749329  0.74380840     0.95360
C136        C  0.24086025  0.97250523  0.77886388     0.95160
C137        C  0.37337740  0.37074697  0.86746618    -0.03500
C138        C  0.36874052  0.87853824  0.36776460    -0.03500
C139        C  0.87239247  0.37435694  0.37266082    -0.03500
N140        N  0.20431748  0.05752897  0.68980539    -0.07130
N141        N  0.23002812  0.04944313  0.73179218    -0.59250
N142        N  0.18497999  0.02323024  0.56889104    -0.06810
N143        N  0.19848749  0.98797429  0.53514961    -0.61380
N144        N  0.22126080  0.05792419  0.57348610    -0.06410
N145        N  0.26034467  0.04636989  0.54281842    -0.59220
N146        N  0.17014655  0.02130983  0.68358720    -0.06080
N147        N  0.17220298  0.98704049  0.72032881    -0.61730
C148        C  0.20921495  0.00567792  0.75023692     0.95050
C149        C  0.24568394  0.00253347  0.51870923     0.94830
N150        N  0.02913829  0.06287748  0.55987219    -0.07310
N151        N  0.99175823  0.04977326  0.52967332    -0.59830
N152        N  0.05335017  0.01868238  0.67532635    -0.05430
N153        N  0.04182297  0.98232283  0.70893900    -0.61080
N154        N  0.01711319  0.05417664  0.67394501    -0.07340
N155        N  0.97997649  0.04265219  0.70653920    -0.60090
N156        N  0.06507784  0.02695877  0.56123952    -0.05080
N157        N  0.05320562  0.98835551  0.53201184    -0.61170
Mn158      Mn  0.11870342  0.02143448  0.62173458     1.18440
C159        C  0.00780131  0.00370470  0.51320302     0.97130
C160        C  0.99627693  0.99807717  0.72866012     0.97790
N161        N  0.21642543  0.18108561  0.58041644    -0.07360
N162        N  0.25268015  0.19195189  0.54756434    -0.63670
N163        N  0.17552379  0.21405574  0.69401765    -0.06170
N164        N  0.18744798  0.25128594  0.72623897    -0.64350
N165        N  0.21125492  0.17783939  0.69502774    -0.06870
N166        N  0.24772009  0.18978038  0.72806153    -0.63940
N167        N  0.18022874  0.21686970  0.57970321    -0.05770
N168        N  0.19064939  0.25303650  0.54645044    -0.64630
Mn169      Mn  0.21519826  0.11824774  0.63459207     1.10660
C170        C  0.23566003  0.23666945  0.52733757     0.98350
C171        C  0.23199665  0.23514462  0.74835676     0.98430
N172        N  0.01934584  0.17159241  0.67890647    -0.06880
N173        N  0.98635048  0.17208060  0.71655815    -0.62250
N174        N  0.05888541  0.22010526  0.56791922    -0.06200
N175        N  0.04918188  0.25808124  0.53492094    -0.58980
N176        N  0.02449471  0.18356452  0.56282880    -0.07510
N177        N  0.99113827  0.19593277  0.52645810    -0.61820
N178        N  0.05542504  0.20585884  0.68539956    -0.06490
N179        N  0.04844866  0.23007262  0.72827624    -0.59000
Mn180      Mn  0.02115003  0.11849314  0.61823214     1.20190
Mn181      Mn  0.11698726  0.21612659  0.63176884     1.10090
Cl182      Cl  0.11839500  0.11893345  0.62558465    -0.86970
C183        C  0.00551504  0.20830127  0.74715011     0.95360
C184        C  0.00737641  0.24211618  0.50831625     0.95160
N185        N  0.02193444  0.67621928  0.05455788    -0.07130
N186        N  0.98420614  0.70886984  0.04289459    -0.59250
N187        N  0.06771896  0.56146576  0.02584608    -0.06810
N188        N  0.05536192  0.53192363  0.98795956    -0.61380
N189        N  0.03234961  0.56035572  0.06163823    -0.06410
N190        N  0.99473216  0.53002849  0.04906583    -0.59220
N191        N  0.05698499  0.67666965  0.01869692    -0.06080
N192        N  0.04394689  0.70930672  0.98194677    -0.61730
C193        C  0.99858431  0.72975615  0.99754021     0.95050
C194        C  0.01026281  0.51318152  0.00351895     0.94830
N195        N  0.22443044  0.57014215  0.05068407    -0.07310
N196        N  0.26206783  0.53790583  0.03769852    -0.59830
N197        N  0.17348576  0.68384975  0.02130681    -0.05430
N198        N  0.17295773  0.72309086  0.98985508    -0.61080
N199        N  0.20939820  0.68843034  0.05593749    -0.07340
N200        N  0.23419467  0.73161771  0.04899683    -0.60090
N201        N  0.18666668  0.56720127  0.01779245    -0.05080
N202        N  0.19769777  0.53319164  0.98205890    -0.61170
Mn203      Mn  0.12162592  0.62181195  0.01988007     1.18440
C204        C  0.24473899  0.51448698  0.99487213     0.97130
C205        C  0.21058407  0.75262014  0.00791618     0.97790
N206        N  0.02882470  0.56164160  0.18116872    -0.07360
N207        N  0.99298510  0.52791277  0.19436474    -0.63670
N208        N  0.06638890  0.68279848  0.20561830    -0.06170
N209        N  0.06082104  0.72587939  0.23084552    -0.64350
N210        N  0.03019049  0.67915964  0.17107600    -0.06870
N211        N  0.99925416  0.71903144  0.17180365    -0.63940
N212        N  0.06436971  0.56394294  0.21656048    -0.05770
N213        N  0.05293485  0.53187729  0.25460613    -0.64630
Mn214      Mn  0.02697885  0.61883078  0.11759477     1.10660
C215        C  0.00841921  0.50882959  0.24018675     0.98350
C216        C  0.01900369  0.74784775  0.20885022     0.98430
N217        N  0.22220082  0.68611881  0.17562908    -0.06880
N218        N  0.25902756  0.71912435  0.18756031    -0.62250
N219        N  0.18560035  0.56543036  0.20463632    -0.06200
N220        N  0.19055898  0.52260726  0.23092088    -0.58980
N221        N  0.22148504  0.56822834  0.16938313    -0.07510
N222        N  0.25211516  0.52787087  0.17144309    -0.61820
N223        N  0.18773778  0.68396895  0.21223821    -0.06490
N224        N  0.20068363  0.71545624  0.24968539    -0.59000
Mn225      Mn  0.22168340  0.62871595  0.11284986     1.20190
Mn226      Mn  0.12610034  0.62405964  0.21216380     1.10090
Cl227      Cl  0.12420034  0.62307543  0.11586102    -0.86970
C228        C  0.24494874  0.73784773  0.23365346     0.95360
C229        C  0.23169539  0.49958824  0.20935343     0.95160
N230        N  0.68842043  0.21077367  0.05928609    -0.07130
N231        N  0.73130772  0.23613658  0.05240816    -0.59250
N232        N  0.56781860  0.18574887  0.02124570    -0.06810
N233        N  0.53317739  0.19647941  0.98581880    -0.61380
N234        N  0.56946500  0.22264085  0.05509313    -0.06410
N235        N  0.53520814  0.25911016  0.04340455    -0.59220
N236        N  0.68422144  0.17496945  0.02461016    -0.06080
N237        N  0.72342811  0.17469086  0.99361596    -0.61730
C238        C  0.75249972  0.21258583  0.01158041     0.95050
C239        C  0.51240287  0.24214884  0.00010506     0.94830
N240        N  0.56544753  0.02994441  0.06226735    -0.07310
N241        N  0.53420832  0.99284370  0.05055165    -0.59830
N242        N  0.68020502  0.05868504  0.01944223    -0.05430
N243        N  0.71180141  0.04681417  0.98182635    -0.61080
N244        N  0.68056041  0.02233016  0.05428272    -0.07340
N245        N  0.71227194  0.98458910  0.04086442    -0.60090
N246        N  0.56518285  0.06620338  0.02709091    -0.05080
N247        N  0.53385418  0.05499099  0.99021983    -0.61170
Mn248      Mn  0.62382440  0.12190538  0.02206408     1.18440
C249        C  0.51541702  0.00965638  0.00600500     0.97130
C250        C  0.73218201  0.00067646  0.99573295     0.97790
N251        N  0.56928626  0.21795817  0.17374083    -0.07360
N252        N  0.53007578  0.24967369  0.17823520    -0.63670
N253        N  0.68550521  0.18433348  0.21532917    -0.06170
N254        N  0.71735213  0.19581578  0.25295267    -0.64350
N255        N  0.68660411  0.22053453  0.18007712    -0.06870
N256        N  0.71884206  0.25750115  0.19363289    -0.63940
N257        N  0.56728533  0.18099299  0.20826586    -0.05770
N258        N  0.52616835  0.18637774  0.23664937    -0.64630
Mn259      Mn  0.62894073  0.22047459  0.11686521     1.10660
C260        C  0.50330395  0.22881579  0.21689460     0.98350
C261        C  0.73862974  0.24145275  0.23907565     0.98430
N262        N  0.68503103  0.02894613  0.17055497    -0.06880
N263        N  0.72679091  0.00069400  0.16966847    -0.62250
N264        N  0.56820889  0.05884529  0.21594245    -0.06200
N265        N  0.53504115  0.04643365  0.25247223    -0.58980
N266        N  0.56814473  0.02334562  0.18059646    -0.07510
N267        N  0.53538507  0.98623875  0.19246851    -0.61820
N268        N  0.68724967  0.06420890  0.20597102    -0.06490
N269        N  0.73122383  0.06064479  0.23014180    -0.59000
Mn270      Mn  0.62447606  0.02473357  0.11745656     1.20190
Mn271      Mn  0.62683798  0.12192096  0.21381998     1.10090
Cl272      Cl  0.62550556  0.12257811  0.11795318    -0.86970
C273        C  0.75519317  0.02082364  0.20690883     0.95360
C274        C  0.51458751  0.00081043  0.23748731     0.95160
C275        C  0.61439649  0.61421938  0.11212929    -0.03500
C276        C  0.11837947  0.62335005  0.61361754    -0.03500
N277        N  0.30939741  0.27477342  0.42663004    -0.07130
N278        N  0.30321497  0.24312270  0.46503397    -0.59250
N279        N  0.26943116  0.30339970  0.30996417    -0.06810
N280        N  0.23429652  0.29188562  0.27542082    -0.61380
N281        N  0.30528623  0.26741806  0.31167715    -0.06410
N282        N  0.29494146  0.23053476  0.27875646    -0.59220
N283        N  0.27317148  0.31036749  0.42568142    -0.06080
N284        N  0.24106121  0.30398320  0.46354373    -0.61730
C285        C  0.26087448  0.26228270  0.48728024     0.95050
C286        C  0.25078497  0.24640674  0.25584136     0.94830
N287        N  0.30928769  0.45730835  0.30294713    -0.07310
N288        N  0.30455518  0.48557478  0.26175260    -0.59830
N289        N  0.26788015  0.43145826  0.42203129    -0.05430
N290        N  0.23245999  0.44306258  0.45664247    -0.61080
N291        N  0.30306034  0.46757927  0.42008745    -0.07340
N292        N  0.29189759  0.50443385  0.45316000    -0.60090
N293        N  0.27267182  0.42284719  0.30530513    -0.05080
N294        N  0.24154180  0.42742663  0.26626863    -0.61170
Mn295      Mn  0.26890361  0.36723147  0.36596328     1.18440
C296        C  0.26256078  0.46613094  0.23922055     0.97130
C297        C  0.24792427  0.48865018  0.47641587     0.97790
N298        N  0.42498043  0.27154681  0.31120812    -0.07360
N299        N  0.43118348  0.23896966  0.27373977    -0.63670
N300        N  0.46466915  0.30682094  0.42666750    -0.06170
N301        N  0.50093442  0.29616453  0.46072778    -0.64350
N302        N  0.42913424  0.27105408  0.42784971    -0.06870
N303        N  0.44050488  0.23566291  0.46280734    -0.63940
N304        N  0.45946290  0.30818688  0.30913779    -0.05770
N305        N  0.48942967  0.30208575  0.26954373    -0.64630
Mn306      Mn  0.36737170  0.26955738  0.36947883     1.10660
C307        C  0.47077229  0.25932436  0.24776389     0.98350
C308        C  0.48485866  0.25225771  0.48404017     0.98430
N309        N  0.42472775  0.46455124  0.42011396    -0.06880
N310        N  0.43355701  0.50023183  0.45403622    -0.62250
N311        N  0.46546305  0.42850803  0.30666615    -0.06200
N312        N  0.50382117  0.44030381  0.27557673    -0.58980
N313        N  0.42957410  0.46448781  0.30493946    -0.07510
N314        N  0.44289410  0.50144990  0.27249575    -0.61820
N315        N  0.46067059  0.42856755  0.42155133    -0.06490
N316        N  0.49498354  0.43872791  0.45643317    -0.59000
Mn317      Mn  0.36619713  0.46514377  0.36199076     1.20190
Mn318      Mn  0.46409501  0.36763446  0.36613396     1.10090
Cl319      Cl  0.36669809  0.36750268  0.36617319    -0.86970
C320        C  0.47717703  0.48311558  0.47605099     0.95360
C321        C  0.48905706  0.48560617  0.25401518     0.95160
N322        N  0.53168903  0.68384171  0.68161750    -0.07130
N323        N  0.50440908  0.68959151  0.72305897    -0.59250
N324        N  0.55458772  0.72287415  0.56205238    -0.06810
N325        N  0.54093500  0.75964672  0.52938051    -0.61380
N326        N  0.51844171  0.68779674  0.56514727    -0.06410
N327        N  0.47951168  0.70044769  0.53468676    -0.59220
N328        N  0.56612240  0.72037185  0.67776516    -0.06080
N329        N  0.56252005  0.75248659  0.71590015    -0.61730
C330        C  0.52447114  0.73212129  0.74405744     0.95050
C331        C  0.49392861  0.74544069  0.51213728     0.94830
N332        N  0.71141047  0.68058219  0.55632204    -0.07310
N333        N  0.74191340  0.68537483  0.51703445    -0.59830
N334        N  0.68461474  0.72329801  0.67153312    -0.05430
N335        N  0.69604882  0.75893756  0.70537791    -0.61080
N336        N  0.71993746  0.68686306  0.67160239    -0.07340
N337        N  0.75601673  0.69698850  0.70548225    -0.60090
N338        N  0.67568100  0.71669923  0.55615776    -0.05080
N339        N  0.68096100  0.74740783  0.51676179    -0.61170
Mn340      Mn  0.62019983  0.72261934  0.61643033     1.18440
C341        C  0.72201865  0.72678113  0.49311935     0.97130
C342        C  0.74060226  0.74196061  0.72679713     0.97790
N343        N  0.52288945  0.56501418  0.56794030    -0.07360
N344        N  0.48703144  0.55500834  0.53440857    -0.63670
N345        N  0.56093089  0.52797894  0.68258262    -0.06170
N346        N  0.55013365  0.49122941  0.71607473    -0.64350
N347        N  0.52496601  0.56381768  0.68316801    -0.06870
N348        N  0.48900701  0.55191898  0.71690804    -0.63940
N349        N  0.55905822  0.52918931  0.56740973    -0.05770
N350        N  0.54885790  0.49387516  0.53365241    -0.64630
Mn351      Mn  0.52278917  0.62539960  0.62432593     1.10660
C352        C  0.50423211  0.51082044  0.51372607     0.98350
C353        C  0.50534947  0.50671524  0.73786317     0.98430
N354        N  0.71695819  0.56752245  0.67552218    -0.06880
N355        N  0.75043974  0.56117645  0.71241142    -0.62250
N356        N  0.68121098  0.52489633  0.56129099    -0.06200
N357        N  0.69185527  0.48862391  0.52732335    -0.58980
N358        N  0.71638568  0.56094279  0.55929498    -0.07510
N359        N  0.75111934  0.55009452  0.52403039    -0.61820
N360        N  0.68031546  0.53319397  0.67866640    -0.06490
N361        N  0.68711585  0.50336174  0.71845717    -0.59000
Mn362      Mn  0.71781368  0.62393608  0.61558688     1.20190
Mn363      Mn  0.62065490  0.52718210  0.62228224     1.10090
Cl364      Cl  0.62014110  0.62470481  0.61889409    -0.86970
C365        C  0.73049589  0.52169652  0.73918553     0.95360
C366        C  0.73550136  0.50502789  0.50362550     0.95160
C367        C  0.62157377  0.11509254  0.61086250    -0.03500
C368        C  0.12174320  0.12022780  0.11535565    -0.03500
C369        C  0.17392728  0.20506735  0.13846029    -0.21320
C370        C  0.16462046  0.15166275  0.14763240    -0.07880
C371        C  0.20002717  0.12980831  0.18445811     0.12990
C372        C  0.22267746  0.16150769  0.22163502    -0.21370
C373        C  0.22205795  0.21527143  0.21741917    -0.07890
C374        C  0.19975242  0.23705988  0.17330869     0.12980
C375        C  0.20499503  0.29370586  0.16142197    -0.24720
H376        H  0.16234248  0.22265428  0.10295148     0.14260
H377        H  0.24571012  0.14378975  0.25151037     0.14290
C378        C  0.22767639  0.07861440  0.17930194    -0.24670
H379        H  0.18739142  0.30413751  0.12422039     0.04500
H380        H  0.24632200  0.30411788  0.15992787     0.07730
H381        H  0.18532929  0.31683122  0.19107613     0.07730
H382        H  0.21967669  0.05814701  0.14374503     0.07710
H383        H  0.21972538  0.05365250  0.21289180     0.07710
H384        H  0.26987088  0.08515890  0.17830305     0.04490
C385        C  0.55347817  0.18613308  0.49184121    -0.21320
C386        C  0.51886151  0.21861716  0.51639338    -0.07880
C387        C  0.51613782  0.21628874  0.56980447     0.12990
C388        C  0.54914504  0.18236721  0.59720627    -0.21370
C389        C  0.58691678  0.15025018  0.57353320    -0.07890
C390        C  0.58618704  0.15118321  0.51810610     0.12980
C391        C  0.61591039  0.11599186  0.48276301    -0.24720
H392        H  0.55413875  0.18772906  0.45057554     0.14260
H393        H  0.54619950  0.18169949  0.63832490     0.14290
C394        C  0.47854508  0.24999602  0.59798594    -0.24670
H395        H  0.59906966  0.11565714  0.44392684     0.04500
H396        H  0.61464914  0.07524647  0.49454256     0.07730
H397        H  0.65538110  0.13026041  0.47695100     0.07730
H398        H  0.43873100  0.24111176  0.58579400     0.07710
H399        H  0.48664941  0.29115420  0.58957323     0.07710
H400        H  0.48109751  0.24398631  0.63979469     0.04490
C401        C  0.22130112  0.57459002  0.51142359    -0.21320
C402        C  0.21758231  0.52084566  0.51413591    -0.07880
C403        C  0.18593396  0.49994309  0.55286018     0.12990
C404        C  0.15768210  0.53299894  0.58570001    -0.21370
C405        C  0.15661256  0.58771517  0.58018304    -0.07890
C406        C  0.19245734  0.60800782  0.54316929     0.12980
C407        C  0.20163805  0.66484307  0.53499775    -0.24720
H408        H  0.24670466  0.59094249  0.48295809     0.14260
H409        H  0.13656691  0.51470790  0.61604430     0.14290
C410        C  0.18269919  0.44247915  0.56092020    -0.24670
H411        H  0.22992988  0.67231770  0.50417512     0.04500
H412        H  0.21830039  0.68219183  0.56945357     0.07730
H413        H  0.16601537  0.68464466  0.52301674     0.07730
H414        H  0.22177968  0.42615605  0.56739195     0.07710
H415        H  0.16517235  0.42423275  0.52714502     0.07710
H416        H  0.15855869  0.43239797  0.59437403     0.04490
C417        C  0.58921587  0.58030240  0.20283139    -0.21320
C418        C  0.58187080  0.57839819  0.14923763    -0.07880
C419        C  0.54446246  0.54175381  0.13151517     0.12990
C420        C  0.51570043  0.51217240  0.16668890    -0.21370
C421        C  0.52205599  0.51679416  0.21910826    -0.07890
C422        C  0.55959936  0.55084803  0.23735400     0.12980
C423        C  0.56802221  0.55657058  0.29372448    -0.24720
H424        H  0.61722639  0.60591523  0.21892771     0.14260
H425        H  0.48708191  0.48539429  0.15313257     0.14290
C426        C  0.53162008  0.53391943  0.07602653    -0.24670
H427        H  0.59856712  0.58493155  0.30219125     0.04500
H428        H  0.57967044  0.51887313  0.31054826     0.07730
H429        H  0.53188131  0.56993964  0.31210167     0.07730
H430        H  0.56488948  0.51843079  0.05475491     0.07710
H431        H  0.51724290  0.57005942  0.05866430     0.07710
H432        H  0.50045012  0.50538423  0.07094177     0.04490
C433        C  0.77243713  0.32718272  0.26803465    -0.21320
C434        C  0.77390411  0.27330445  0.27239239    -0.07880
C435        C  0.80800738  0.25175344  0.30899506     0.12990
C436        C  0.83910709  0.28409218  0.33945360    -0.21370
C437        C  0.83853487  0.33895535  0.33559698    -0.07890
C438        C  0.80301889  0.35990247  0.29836114     0.12980
C439        C  0.79552711  0.41674226  0.28757165    -0.24720
H440        H  0.74628286  0.34450347  0.24057403     0.14260
H441        H  0.86191762  0.26516263  0.36827272     0.14290
C442        C  0.81239190  0.19418326  0.31624382    -0.24670
H443        H  0.75582497  0.42849062  0.29825550     0.04500
H444        H  0.80104371  0.42429871  0.24626891     0.07730
H445        H  0.82265742  0.44187350  0.30721278     0.07730
H446        H  0.82239417  0.17571145  0.27953138     0.07710
H447        H  0.77549245  0.17862940  0.33069949     0.07710
H448        H  0.84271128  0.18346231  0.34421015     0.04490
C449        C  0.91597921  0.40104115  0.28506580    -0.21320
C450        C  0.91323837  0.40708067  0.33896080    -0.07880
C451        C  0.95099738  0.44197773  0.35918789     0.12990
C452        C  0.98092809  0.47371640  0.32621870    -0.21370
C453        C  0.97742417  0.47164097  0.27296002    -0.07890
C454        C  0.94516603  0.43337215  0.25246467     0.12980
C455        C  0.94204126  0.42509374  0.19580373    -0.24720
H456        H  0.89496936  0.37080199  0.26677685     0.14260
H457        H  0.00744680  0.50107051  0.34246450     0.14290
C458        C  0.96267733  0.44615111  0.41522534    -0.24670
H459        H  0.91758927  0.39165993  0.18611632     0.04500
H460        H  0.98108072  0.41769056  0.18018404     0.07730
H461        H  0.92481121  0.45952686  0.17699546     0.07730
H462        H  0.97788767  0.40908386  0.43014026     0.07710
H463        H  0.92870888  0.45885938  0.43677447     0.07710
H464        H  0.99291368  0.47507899  0.42287447     0.04490
C465        C  0.94468692  0.30746132  0.39070743    -0.21320
C466        C  0.90661928  0.34077926  0.41211661    -0.07880
C467        C  0.90706202  0.34293793  0.46757589     0.12990
C468        C  0.94044199  0.31027619  0.49611014    -0.21370
C469        C  0.97533450  0.27629604  0.47384734    -0.07410
C470        C  0.97764085  0.27512940  0.42028552     0.12980
C471        C  0.01504122  0.23955119  0.39419189    -0.24720
H472        H  0.94793707  0.30582199  0.34965679     0.14260
H473        H  0.93933280  0.31104021  0.53736432     0.14290
C474        C  0.87577206  0.37899853  0.50071168    -0.24670
H475        H  0.01247619  0.24296178  0.35212143     0.04500
H476        H  0.00676949  0.19901293  0.40508275     0.07730
H477        H  0.05489772  0.24902456  0.40579139     0.07730
H478        H  0.83696752  0.36327933  0.50738598     0.07710
H479        H  0.87492312  0.41893035  0.48649277     0.07710
H480        H  0.89263532  0.38260196  0.53934452     0.04490
C481        C  0.75659412  0.42153448  0.45963736    -0.21320
C482        C  0.76596068  0.47439343  0.46478754    -0.07880
C483        C  0.80474636  0.49608898  0.43342556     0.12990
C484        C  0.83517075  0.46408924  0.40178350    -0.21370
C485        C  0.83110086  0.40952227  0.40145602    -0.07890
C486        C  0.78737992  0.38910107  0.42857666     0.12980
C487        C  0.77342063  0.33263534  0.42861653    -0.24720
H488        H  0.72563431  0.40478841  0.48170525     0.14260
H489        H  0.86326576  0.48283599  0.37806394     0.14290
C490        C  0.81457830  0.55331072  0.43241922    -0.24670
H491        H  0.75689109  0.32203332  0.39136640     0.04500
H492        H  0.74347913  0.32351071  0.45739991     0.07730
H493        H  0.80722241  0.30809841  0.43789177     0.07730
H494        H  0.82976893  0.56585079  0.46970689     0.07710
H495        H  0.77841469  0.57451826  0.42341207     0.07710
H496        H  0.84353918  0.56408854  0.40320515     0.04490
C497        C  0.27625918  0.82607805  0.25815606    -0.21320
C498        C  0.27781367  0.77264849  0.26573495    -0.07880
C499        C  0.31211110  0.75307880  0.30269949     0.12990
C500        C  0.34294974  0.78698451  0.33145596    -0.21370
C501        C  0.33773295  0.84180486  0.32924835    -0.07890
C502        C  0.30527505  0.86065600  0.28838867     0.12980
C503        C  0.29854750  0.91715205  0.27603208    -0.24720
H504        H  0.25125015  0.84106056  0.22847264     0.14260
H505        H  0.37148865  0.76898787  0.35536754     0.14290
C506        C  0.31646943  0.69577242  0.31176212    -0.24670
H507        H  0.26934598  0.92391448  0.24584157     0.04500
H508        H  0.33473661  0.93353364  0.26112414     0.07730
H509        H  0.28472358  0.93807385  0.30979738     0.07730
H510        H  0.32875699  0.67636867  0.27621917     0.07710
H511        H  0.27858340  0.68041257  0.32383111     0.07710
H512        H  0.34484767  0.68613819  0.34199849     0.04490
C513        C  0.43567207  0.88936990  0.29692231    -0.21320
C514        C  0.40202517  0.91489264  0.33135445    -0.07880
C515        C  0.40256791  0.97073910  0.32824012     0.12990
C516        C  0.44126926  0.99609500  0.29962489    -0.21370
C517        C  0.47572993  0.96991496  0.26782922    -0.07890
C518        C  0.47156171  0.91550561  0.26554361     0.12980
C519        C  0.50665822  0.88389486  0.23218346    -0.24720
H520        H  0.43554817  0.84762313  0.29623614     0.14260
H521        H  0.44257620  0.03788762  0.29985831     0.14290
C522        C  0.36252473  0.00747420  0.34926497    -0.24670
H523        H  0.50011046  0.84188437  0.23705111     0.04500
H524        H  0.54741714  0.89155502  0.24196236     0.07730
H525        H  0.49959681  0.89356126  0.19158518     0.07730
H526        H  0.37886633  0.02914195  0.38165334     0.07710
H527        H  0.32589241  0.99004964  0.36027432     0.07710
H528        H  0.35138766  0.03587280  0.31928712     0.04490
C529        C  0.35788530  0.94202046  0.44186819    -0.21320
C530        C  0.33277509  0.90910688  0.40675143    -0.07880
C531        C  0.27809016  0.90378159  0.41468356     0.12990
C532        C  0.25206298  0.93605712  0.44988630    -0.21370
C533        C  0.27736202  0.97153311  0.48104162    -0.07890
C534        C  0.33160968  0.97314697  0.47767754     0.12980
C535        C  0.36273924  0.00661237  0.51247108    -0.24720
H536        H  0.39921030  0.94473382  0.44038303     0.14260
H537        H  0.21069713  0.93285018  0.45372520     0.14290
C538        C  0.24512291  0.86268106  0.39100714    -0.24670
H539        H  0.40473515  0.00164707  0.50616518     0.04500
H540        H  0.35455338  0.99634189  0.55274598     0.07730
H541        H  0.35317394  0.04780916  0.50546394     0.07730
H542        H  0.26373919  0.82427935  0.39347216     0.07710
H543        H  0.23432722  0.87331925  0.35173249     0.07710
H544        H  0.20796203  0.85830608  0.41142458     0.04490
C545        C  0.38062664  0.80940666  0.43866189    -0.21320
C546        C  0.40517491  0.84545329  0.40564423    -0.07880
C547        C  0.45985216  0.85105585  0.41435876     0.12990
C548        C  0.48642376  0.81599758  0.44679753    -0.21370
C549        C  0.46171502  0.77803801  0.47585305    -0.07890
C550        C  0.40745737  0.77569450  0.47223341     0.12980
C551        C  0.37688432  0.73858977  0.50436544    -0.24720
H552        H  0.33922279  0.80649043  0.43713582     0.14260
H553        H  0.52772269  0.81973799  0.45093556     0.14290
C554        C  0.49239944  0.89591383  0.39673735    -0.24670
H555        H  0.33483993  0.74298914  0.49798327     0.04500
H556        H  0.38440856  0.74560997  0.54529540     0.07730
H557        H  0.38759984  0.69835157  0.49468622     0.07730
H558        H  0.47103074  0.93271248  0.39535700     0.07710
H559        H  0.51157898  0.88685342  0.36023249     0.07710
H560        H  0.52379552  0.90350094  0.42430456     0.04490
C561        C  0.29953024  0.30245010  0.75223299    -0.21320
C562        C  0.26671461  0.26934891  0.77855027    -0.07880
C563        C  0.27078697  0.26691705  0.83190913     0.12990
C564        C  0.30597510  0.29910633  0.85753379    -0.21370
C565        C  0.33856902  0.33497431  0.83202724    -0.07890
C566        C  0.33708974  0.33266378  0.77680632     0.12980
C567        C  0.37498731  0.35627089  0.73971186    -0.24720
H568        H  0.29767277  0.30248835  0.71096972     0.14260
H569        H  0.30713089  0.29718817  0.89869992     0.14290
C570        C  0.23749561  0.23054346  0.86198580    -0.24670
H571        H  0.35750326  0.39053434  0.72078894     0.04500
H572        H  0.38463148  0.32797078  0.70953759     0.07730
H573        H  0.41270684  0.36558846  0.75530747     0.07730
H574        H  0.24531433  0.19026762  0.85004994     0.07710
H575        H  0.19632660  0.23992085  0.85511352     0.07710
H576        H  0.24492011  0.23317411  0.90348949     0.04490
C577        C  0.32931997  0.47791868  0.96604532    -0.21320
C578        C  0.27560413  0.47699088  0.96316885    -0.07880
C579        C  0.25312965  0.44126336  0.92948547     0.12990
C580        C  0.28461988  0.40808664  0.90016332    -0.21370
C581        C  0.33931381  0.40757210  0.90297868    -0.07890
C582        C  0.36120534  0.44469855  0.93732322     0.12980
C583        C  0.41806227  0.45135191  0.94681829    -0.24720
H584        H  0.34712847  0.50543426  0.99126990     0.14260
H585        H  0.26506684  0.38442400  0.87301930     0.14290
C586        C  0.19554394  0.43722222  0.92409866    -0.24670
H587        H  0.42569090  0.44929102  0.98837485     0.04500
H588        H  0.43038117  0.48964249  0.93234198     0.07730
H589        H  0.44264865  0.42163534  0.92988495     0.07730
H590        H  0.17959713  0.47340631  0.90753067     0.07710
H591        H  0.17786757  0.42967866  0.96187492     0.07710
H592        H  0.18436353  0.40529181  0.89856469     0.04490
C593        C  0.40171170  0.33154296  0.95620858    -0.21320
C594        C  0.40636733  0.33137797  0.90212131    -0.07880
C595        C  0.44084998  0.29267227  0.88233631     0.12990
C596        C  0.47416732  0.26496503  0.91540989    -0.21370
C597        C  0.47393084  0.27180041  0.96828082    -0.07890
C598        C  0.43576591  0.30443304  0.98890476     0.12980
C599        C  0.42960956  0.30994908  0.04563523    -0.24720
H600        H  0.37166864  0.35355125  0.97434660     0.14260
H601        H  0.50148797  0.23773483  0.89949747     0.14290
C602        C  0.44372456  0.27853234  0.82678414    -0.24670
H603        H  0.39624879  0.33491723  0.05559224     0.04500
H604        H  0.46445045  0.32779671  0.06200751     0.07730
H605        H  0.42348464  0.27149629  0.06337174     0.07730
H606        H  0.45561878  0.31158854  0.80328655     0.07710
H607        H  0.40655367  0.26293706  0.81376846     0.07710
H608        H  0.47267844  0.24771665  0.81964143     0.04490
C609        C  0.46280413  0.40578083  0.83698342    -0.21320
C610        C  0.40817076  0.40953158  0.83580529    -0.07880
C611        C  0.38737254  0.45098233  0.80514714     0.12990
C612        C  0.42025506  0.48175972  0.77488196    -0.21370
C613        C  0.47374780  0.47448091  0.77382348    -0.07890
C614        C  0.49521808  0.43655063  0.80646401     0.12980
C615        C  0.55263649  0.42864160  0.81045053    -0.24720
H616        H  0.48156285  0.37853871  0.86198582     0.14260
H617        H  0.40363692  0.51172077  0.75094876     0.14290
C618        C  0.33062139  0.46395646  0.80242348    -0.24670
H619        H  0.56303765  0.39989427  0.84031489     0.04500
H620        H  0.57138277  0.46555934  0.82029699     0.07730
H621        H  0.56817545  0.41410184  0.77391654     0.07730
H622        H  0.30715093  0.42942698  0.79531869     0.07710
H623        H  0.32182700  0.49162796  0.77110637     0.07710
H624        H  0.31820751  0.48302407  0.83795909     0.04490
C625        C  0.19401857  0.63515459  0.67494342    -0.21320
C626        C  0.15616852  0.66021248  0.64410189    -0.07880
C627        C  0.15845846  0.71602774  0.64388932     0.12990
C628        C  0.18999722  0.74182337  0.67943862    -0.21370
C629        C  0.22370231  0.71601736  0.71265615    -0.07890
C630        C  0.22647420  0.66164417  0.70918701     0.12980
C631        C  0.26380909  0.63086629  0.74124536    -0.24720
H632        H  0.19610378  0.59343685  0.67457665     0.14260
H633        H  0.18971625  0.78365301  0.67978771     0.14290
C634        C  0.13466677  0.75241005  0.60513932    -0.24670
H635        H  0.26239572  0.58906554  0.73255294     0.04500
H636        H  0.25428012  0.63543332  0.78212685     0.07730
H637        H  0.30363166  0.64424189  0.73399993     0.07730
H638        H  0.10473622  0.77668523  0.62343327     0.07710
H639        H  0.11919337  0.73477469  0.57090692     0.07710
H640        H  0.16486988  0.77860293  0.59022509     0.04490
C641        C  0.19312102  0.10898506  0.05008363    -0.21320
C642        C  0.15406481  0.08411203  0.07888230    -0.07880
C643        C  0.14904884  0.02929781  0.07077530     0.12990
C644        C  0.18681300  0.00268675  0.04231867    -0.21370
C645        C  0.22588859  0.02815271  0.01571004    -0.07890
C646        C  0.22823508  0.08234624  0.01886930     0.12980
C647        C  0.26881758  0.11263258  0.99090818    -0.24720
H648        H  0.19632241  0.15046007  0.05189584     0.14260
H649        H  0.18367414  0.96125313  0.03808720     0.14290
C650        C  0.10305844  0.99656846  0.08457428    -0.24670
H651        H  0.26672793  0.15439516  0.99977834     0.04500
H652        H  0.26349654  0.10872121  0.94924376     0.07730
H653        H  0.30765509  0.09838077  0.00191469     0.07730
H654        H  0.06901557  0.01825590  0.09747002     0.07710
H655        H  0.11416159  0.96727972  0.11365579     0.07710
H656        H  0.08982464  0.97575382  0.05023976     0.04490
C657        C  0.59941109  0.68797429  0.04695186    -0.21320
C658        C  0.57730643  0.65391587  0.08336243    -0.07880
C659        C  0.52391507  0.66412850  0.09497200     0.12990
C660        C  0.49366533  0.69376729  0.06100276    -0.21370
C661        C  0.51507733  0.71989640  0.01964564    -0.07890
C662        C  0.56902292  0.71941079  0.01427584     0.12980
C663        C  0.59443116  0.75128046  0.97349290    -0.24720
H664        H  0.64073270  0.68707022  0.04154219     0.14260
H665        H  0.45285864  0.69871062  0.06836412     0.14290
C666        C  0.49918882  0.65390930  0.14611642    -0.24670
H667        H  0.63692224  0.74650455  0.97405641     0.04500
H668        H  0.58518186  0.79268062  0.97927670     0.07730
H669        H  0.58025271  0.73937955  0.93555238     0.07730
H670        H  0.52713598  0.65805226  0.17750501     0.07710
H671        H  0.47998575  0.61602523  0.14687851     0.07710
H672        H  0.46878980  0.68306807  0.15427811     0.04490
C673        C  0.58396533  0.08375502  0.69938392    -0.21320
C674        C  0.58149048  0.08254162  0.64521321    -0.07880
C675        C  0.54012936  0.05169048  0.62524770     0.12990
C676        C  0.50988113  0.02037147  0.65809566    -0.21370
C677        C  0.51622324  0.01960804  0.71105156    -0.07890
C678        C  0.55429698  0.05182730  0.73164218     0.12980
C679        C  0.56553761  0.05167312  0.78796864    -0.24720
H680        H  0.60912678  0.10993546  0.71839733     0.14260
H681        H  0.47944058  0.99716699  0.64222537     0.14290
C682        C  0.52476556  0.05165945  0.56980700    -0.24670
H683        H  0.59940145  0.07565335  0.79731909     0.04500
H684        H  0.57404000  0.01170904  0.80110632     0.07730
H685        H  0.53221387  0.06743436  0.80929112     0.07730
H686        H  0.55706213  0.04013751  0.54527181     0.07710
H687        H  0.50933580  0.08985982  0.55830067     0.07710
H688        H  0.49350809  0.02384644  0.56212501     0.04490
C689        C  0.65466957  0.20517121  0.64470778    -0.21320
C690        C  0.65701094  0.15015973  0.64699095    -0.07880
C691        C  0.69512329  0.12940859  0.68183413     0.12990
C692        C  0.72511215  0.16243485  0.71266098    -0.21370
C693        C  0.71933097  0.21614387  0.71153882    -0.07890
C694        C  0.68386580  0.23750251  0.67665333     0.12980
C695        C  0.67712981  0.29517165  0.67262830    -0.24720
H696        H  0.63133993  0.22460067  0.61668620     0.14260
H697        H  0.75318119  0.14573927  0.73859367     0.14290
C698        C  0.70574509  0.07255250  0.68940782    -0.24670
H699        H  0.64786264  0.30631761  0.64373725     0.04500
H700        H  0.71416477  0.31316010  0.66165483     0.07730
H701        H  0.66448922  0.31074024  0.70987719     0.07730
H702        H  0.67839911  0.04720263  0.67015426     0.07710
H703        H  0.70309666  0.06277200  0.73054310     0.07710
H704        H  0.74519143  0.06323665  0.67589998     0.04490
C705        C  0.04440563  0.18582322  0.99961018    -0.21320
C706        C  0.02987042  0.23308590  0.02000983    -0.07880
C707        C  0.04318944  0.24343875  0.07077409     0.12990
C708        C  0.07101709  0.20641733  0.09942076    -0.21370
C709        C  0.08823536  0.15829941  0.07962682    -0.07890
C710        C  0.07069432  0.14759133  0.02837185     0.12980
C711        C  0.07219006  0.09525941  0.00369857    -0.24720
H712        H  0.03228232  0.17767778  0.96104194     0.14260
H713        H  0.07811524  0.21486648  0.13904149     0.14290
C714        C  0.02908073  0.29416695  0.09484237    -0.24670
H715        H  0.04946425  0.09417849  0.96795464     0.04500
H716        H  0.05388018  0.06682441  0.02909224     0.07730
H717        H  0.11156077  0.08413227  0.99215488     0.07730
H718        H  0.98664951  0.29840522  0.09697919     0.07710
H719        H  0.04517846  0.32635689  0.07189902     0.07710
H720        H  0.04450703  0.29717778  0.13409119     0.04490
C721        C  0.66331088  0.52819762  0.09279522    -0.21320
C722        C  0.64295421  0.57543323  0.07295998    -0.07880
C723        C  0.64585443  0.57829062  0.01779038     0.12990
C724        C  0.68231136  0.54781055  0.99112177    -0.21370
C725        C  0.70881468  0.50696022  0.01427327    -0.07890
C726        C  0.69713117  0.49565604  0.06547672     0.12980
C727        C  0.71950671  0.44866644  0.09160369    -0.24720
H728        H  0.65399608  0.51655743  0.13116960     0.14260
H729        H  0.68647199  0.55286541  0.95029797     0.14290
C730        C  0.60497635  0.60009055  0.98261666    -0.24670
H731        H  0.70507790  0.44435262  0.13118231     0.04500
H732        H  0.76199985  0.45177423  0.09347713     0.07730
H733        H  0.70901116  0.41347961  0.07031252     0.07730
H734        H  0.56787148  0.60784271  0.00116747     0.07710
H735        H  0.59499913  0.57117552  0.95327527     0.07710
H736        H  0.61967100  0.63456076  0.96218925     0.04490
C737        C  0.05103312  0.54895895  0.73136731    -0.21320
C738        C  0.01746668  0.51584995  0.70616701    -0.07880
C739        C  0.01566538  0.51954470  0.65248903     0.12990
C740        C  0.04808900  0.55457965  0.62627414    -0.21370
C741        C  0.08321792  0.58834576  0.65076040    -0.07890
C742        C  0.08120222  0.58666778  0.70608553     0.12980
C743        C  0.10579291  0.62364010  0.74315627    -0.24720
H744        H  0.05189796  0.54706507  0.77261671     0.14260
H745        H  0.04684761  0.55459367  0.58511320     0.14290
C746        C  0.98098665  0.48536870  0.62192501    -0.24670
H747        H  0.07802956  0.63322227  0.77393289     0.04500
H748        H  0.11580750  0.66175652  0.72806548     0.07730
H749        H  0.13975706  0.60496475  0.76131118     0.07730
H750        H  0.94018510  0.49362943  0.63150255     0.07710
H751        H  0.99009417  0.44426405  0.63018784     0.07710
H752        H  0.98568678  0.49175978  0.58035104     0.04490
C753        C  0.63660003  0.70009139  0.16006776    -0.21320
C754        C  0.65427314  0.65025348  0.14394388    -0.07880
C755        C  0.70542353  0.63732074  0.16236856     0.12990
C756        C  0.73484135  0.67342317  0.19025028    -0.21370
C757        C  0.71688594  0.72249409  0.20342279    -0.07890
C758        C  0.66663748  0.73589898  0.18739898     0.12980
C759        C  0.64344995  0.78800358  0.19899487    -0.24720
H760        H  0.59772655  0.71230873  0.15213105     0.14260
H761        H  0.77302288  0.66255876  0.20311230     0.14290
C762        C  0.73160476  0.58596947  0.15661024    -0.24670
H763        H  0.60446861  0.79290958  0.18230107     0.04500
H764        H  0.66804416  0.81885509  0.18279539     0.07730
H765        H  0.63965729  0.79283525  0.24074055     0.07730
H766        H  0.73994080  0.57893065  0.11600724     0.07710
H767        H  0.70891192  0.55598856  0.17626497     0.07710
H768        H  0.76984949  0.58395207  0.17536171     0.04490
C769        C  0.00562310  0.06501352  0.20206322    -0.21320
C770        C  0.03000374  0.02460156  0.22814827    -0.07880
C771        C  0.08250469  0.01609101  0.21797746     0.12990
C772        C  0.10852079  0.04865649  0.18351201    -0.21370
C773        C  0.08557590  0.08983572  0.15549411    -0.07890
C774        C  0.03081679  0.09662145  0.16558745     0.12980
C775        C  0.99493557  0.13488514  0.14007594    -0.24720
H776        H  0.96511845  0.07133518  0.20981304     0.14260
H777        H  0.14592410  0.03622914  0.17345669     0.14290
C778        C  0.11193924  0.97185727  0.24203340    -0.24670
H779        H  0.95387817  0.12793670  0.14941242     0.04500
H780        H  0.99635664  0.13157627  0.09822780     0.07730
H781        H  0.00183457  0.17404056  0.15464549     0.07730
H782        H  0.09504562  0.93467525  0.23015016     0.07710
H783        H  0.11081201  0.97514477  0.28409731     0.07710
H784        H  0.15302556  0.97131821  0.23039809     0.04490
C785        C  0.00506768  0.71263852  0.55945182    -0.21320
C786        C  0.00814660  0.70433506  0.50700752    -0.07880
C787        C  0.04269094  0.66636941  0.48959891     0.12990
C788        C  0.07537565  0.64020547  0.52430757    -0.21370
C789        C  0.07754393  0.65194453  0.57725671    -0.07890
C790        C  0.03758402  0.68652557  0.59464909     0.12980
C791        C  0.02769718  0.69896054  0.64953625    -0.24720
H792        H  0.97737353  0.74074038  0.57323697     0.14260
H793        H  0.09929331  0.61021075  0.50858615     0.14290
C794        C  0.04567173  0.65381439  0.43377616    -0.24670
H795        H  0.98974516  0.68345835  0.66115939     0.04500
H796        H  0.02721100  0.74134054  0.65506861     0.07730
H797        H  0.05704667  0.68322849  0.67479601     0.07730
H798        H  0.05638952  0.68880362  0.41172992     0.07710
H799        H  0.00773841  0.63997626  0.42043479     0.07710
H800        H  0.07476838  0.62333066  0.42587207     0.04490
C801        C  0.73225632  0.06413410  0.52024849    -0.21320
C802        C  0.71870983  0.01248430  0.51221938    -0.07880
C803        C  0.67836482  0.99223367  0.54216551     0.12990
C804        C  0.65150015  0.02447545  0.57661836    -0.21370
C805        C  0.65985148  0.07859640  0.57990487    -0.07890
C806        C  0.70432238  0.09720902  0.55302559     0.12980
C807        C  0.72182431  0.15266860  0.55477511    -0.24720
H808        H  0.76437875  0.07970932  0.49900330     0.14260
H809        H  0.62272184  0.00635644  0.59993047     0.14290
C810        C  0.66336941  0.93639648  0.53852320    -0.24670
H811        H  0.75169521  0.16101938  0.52569286     0.04500
H812        H  0.73965583  0.16099577  0.59200935     0.07730
H813        H  0.68938581  0.17954772  0.54710003     0.07730
H814        H  0.69722527  0.91132329  0.54664698     0.07710
H815        H  0.64848578  0.92831766  0.49987163     0.07710
H816        H  0.63259577  0.92624313  0.56608511     0.04490
C817        C  0.83320493  0.95794150  0.89798100    -0.21320
C818        C  0.83206601  0.90319548  0.90157120    -0.07880
C819        C  0.79404367  0.88216961  0.93568374     0.12990
C820        C  0.76306477  0.91505008  0.96543807    -0.21370
C821        C  0.76674033  0.96876330  0.96275932    -0.07890
C822        C  0.80209518  0.99040499  0.92800695     0.12980
C823        C  0.80816750  0.04798913  0.92260637    -0.24720
H824        H  0.85758168  0.97675383  0.87056115     0.14260
H825        H  0.73513172  0.89814793  0.99117264     0.14290
C826        C  0.78449318  0.82533690  0.94390898    -0.24670
H827        H  0.83981043  0.05827482  0.89607858     0.04500
H828        H  0.81720520  0.06497526  0.96017183     0.07730
H829        H  0.77230073  0.06551289  0.90724315     0.07730
H830        H  0.78715214  0.81606739  0.98516377     0.07710
H831        H  0.81222114  0.79977240  0.92507836     0.07710
H832        H  0.74528526  0.81569580  0.93043726     0.04490
C833        C  0.90005274  0.89973342  0.77712810    -0.21320
C834        C  0.90428139  0.90254159  0.83109281    -0.07880
C835        C  0.94405866  0.93581379  0.84991227     0.12990
C836        C  0.97220901  0.96736444  0.81581951    -0.21370
C837        C  0.96435166  0.96587420  0.76324313    -0.07890
C838        C  0.92840380  0.93115401  0.74375566     0.12980
C839        C  0.92033602  0.92669739  0.68713005    -0.24720
H840        H  0.87520712  0.87217537  0.75947064     0.14260
H841        H  0.00162978  0.99276736  0.83023205     0.14290
C842        C  0.95963674  0.93776314  0.90530695    -0.24670
H843        H  0.89079044  0.89760327  0.67769893     0.04500
H844        H  0.95692515  0.91509223  0.66847672     0.07730
H845        H  0.90739649  0.96441749  0.67129476     0.07730
H846        H  0.97923650  0.90134380  0.91642851     0.07710
H847        H  0.92646324  0.94490275  0.93063849     0.07710
H848        H  0.98757196  0.96904220  0.91251119     0.04490
C849        C  0.83505472  0.77991114  0.83238249    -0.21320
C850        C  0.83029938  0.83451553  0.83369673    -0.07880
C851        C  0.78986574  0.85638329  0.80258653     0.12990
C852        C  0.76184096  0.82489325  0.76912869    -0.21370
C853        C  0.77074192  0.77176274  0.76525732    -0.07890
C854        C  0.80733287  0.74891997  0.79832556     0.12980
C855        C  0.81724182  0.69153909  0.79882885    -0.24720
H856        H  0.86103130  0.76011910  0.85783606     0.14260
H857        H  0.73265994  0.84236132  0.74499658     0.14290
C858        C  0.77482900  0.91285335  0.80293543    -0.24670
H859        H  0.84490568  0.67983890  0.82903329     0.04500
H860        H  0.83404629  0.67944112  0.76194981     0.07730
H861        H  0.78075534  0.67070893  0.80592280     0.07730
H862        H  0.80832612  0.93804648  0.79649098     0.07710
H863        H  0.75554285  0.92243093  0.83926800     0.07710
H864        H  0.74667736  0.92263694  0.77253555     0.04490
C865        C  0.90420322  0.83620228  0.95519405    -0.21320
C866        C  0.90622383  0.83402223  0.90108120    -0.07880
C867        C  0.94560209  0.80086327  0.88052512     0.12990
C868        C  0.97394983  0.76753422  0.91303216    -0.21370
C869        C  0.96702689  0.76671715  0.96600339    -0.07890
C870        C  0.93223687  0.80253143  0.98725518     0.12980
C871        C  0.92522481  0.80682314  0.04405660    -0.24720
H872        H  0.88101640  0.86484898  0.97393818     0.14260
H873        H  0.00237738  0.74175154  0.89668381     0.14290
C874        C  0.96062643  0.80067644  0.82486360    -0.24670
H875        H  0.89859977  0.83877148  0.05437396     0.04500
H876        H  0.96283228  0.81426660  0.06247254     0.07730
H877        H  0.90856348  0.77070478  0.05950646     0.07730
H878        H  0.98001957  0.83722723  0.81479996     0.07710
H879        H  0.92727359  0.79486247  0.79963826     0.07710
H880        H  0.98859605  0.76937832  0.81616836     0.04490
loop_ 
_geom_bond_atom_site_label_1 
_geom_bond_atom_site_label_2 
_geom_bond_distance 
_geom_bond_site_symmetry_2 
_ccdc_geom_bond_type 
C1          C818   1.590       .  S
C1          C834   1.593       .  S
C1          C850   1.597       .  S
C1          C866   1.596       .  S
N2            N3   1.331       .  A
N2            N8   1.313       .  A
N2          Mn31   2.257       .  S
N3           C10   1.365       .  A
N4            N6   1.311       .  A
N4            N5   1.309   1_565  A
N4          Mn20   2.110       .  S
N5           C11   1.340   1_545  A
N6            N7   1.305       .  A
N6          Mn31   2.158       .  S
N7           C11   1.348       .  A
N8            N9   1.322       .  A
N8          Mn20   2.197       .  S
N9           C10   1.353       .  A
C10         C802   1.515   1_565  S
C11         C273   1.403   1_565  S
N12          N18   1.311       .  A
N12          N13   1.325   1_655  A
N12         Mn42   2.215       .  S
N13          C21   1.358   1_455  A
N14          N15   1.303       .  A
N14          N16   1.313       .  A
N14         Mn20   2.116       .  S
N15          C22   1.337       .  A
N16          N17   1.306       .  A
N16         Mn42   2.123       .  S
N17          C22   1.340       .  A
N18          N19   1.323   1_565  A
N18         Mn20   2.207       .  S
N19          C21   1.357   1_545  A
Mn20        Cl44   2.529       .  S
C21         C770   1.508   1_665  S
C22         C159   1.392   1_665  S
N23          N24   1.327       .  A
N23          N29   1.316       .  A
N23         Mn31   2.230       .  S
N24          C32   1.358       .  A
N25          N27   1.317       .  A
N25          N26   1.308       .  A
N25         Mn43   2.156       .  S
N26          C33   1.344       .  A
N27          N28   1.308       .  A
N27         Mn31   2.144       .  S
N28          C33   1.342       .  A
N29          N30   1.326       .  A
N29         Mn43   2.232       .  S
N30          C32   1.360       .  A
Mn31        Cl44   2.532       .  S
C32         C757   1.523       .  S
C33         C341   1.408       .  S
N34          N35   1.324       .  A
N34          N40   1.316       .  A
N34         Mn42   2.210       .  S
N35          C45   1.353       .  A
N36          N37   1.307       .  A
N36          N38   1.312       .  A
N36         Mn43   2.165       .  S
N37          C46   1.349       .  A
N38          N39   1.308   1_655  A
N38         Mn42   2.113       .  S
N39          C46   1.339   1_455  A
N40          N41   1.330       .  A
N40         Mn43   2.253       .  S
N41          C45   1.361       .  A
Mn42        Cl44   2.536       .  S
Mn43        Cl44   2.529       .  S
C45         C786   1.502   1_655  S
C46         C216   1.404   1_655  S
N47          N48   1.304       .  A
N47          N53   1.315       .  A
N47         Mn76   2.128       .  S
N48          C55   1.339       .  A
N49          N51   1.311       .  A
N49          N50   1.323   1_556  A
N49         Mn65   2.200       .  S
N50          C56   1.353   1_554  A
N51          N52   1.326   1_655  A
N51         Mn76   2.218       .  S
N52          C56   1.357   1_455  A
N53          N54   1.303       .  A
N53         Mn65   2.115       .  S
N54          C55   1.336       .  A
C55         C194   1.387   1_656  S
C56         C706   1.494   1_656  S
N57          N63   1.313       .  A
N57          N58   1.308       .  A
N57         Mn87   2.174       .  S
N58          C66   1.351       .  A
N59          N60   1.325       .  A
N59          N61   1.313       .  A
N59         Mn65   2.202       .  S
N60          C67   1.354       .  A
N61          N62   1.327       .  A
N61         Mn87   2.235       .  S
N62          C67   1.358       .  A
N63          N64   1.306       .  A
N63         Mn65   2.107       .  S
N64          C66   1.336       .  A
Mn65        Cl89   2.532       .  S
C66         C238   1.402   1_556  S
C67         C725   1.501   1_556  S
N68          N69   1.307       .  A
N68          N74   1.313       .  A
N68         Mn76   2.120       .  S
N69          C77   1.340       .  A
N70          N72   1.313       .  A
N70          N71   1.330       .  A
N70         Mn88   2.239       .  S
N71          C78   1.361       .  A
N72          N73   1.326   1_655  A
N72         Mn76   2.219       .  S
N73          C78   1.358   1_455  A
N74          N75   1.309       .  A
N74         Mn88   2.165       .  S
N75          C77   1.350       .  A
Mn76        Cl89   2.533       .  S
C77         C183   1.403   1_655  S
C78         C738   1.520   1_655  S
N79          N80   1.310       .  A
N79          N85   1.316       .  A
N79         Mn87   2.153       .  S
N80          C90   1.343       .  A
N81          N82   1.328       .  A
N81          N83   1.315       .  A
N81         Mn88   2.229       .  S
N82          C91   1.356       .  A
N83          N84   1.330       .  A
N83         Mn87   2.236       .  S
N84          C91   1.360       .  A
N85          N86   1.311       .  A
N85         Mn88   2.172       .  S
N86          C90   1.348       .  A
Mn87        Cl89   2.534       .  S
Mn88        Cl89   2.530       .  S
C90         C365   1.412       .  S
C91         C693   1.509       .  S
N92          N93   1.327       .  A
N92          N98   1.312       .  A
N92        Mn121   2.234       .  S
N93         C100   1.358       .  A
N94          N96   1.312       .  A
N94          N95   1.306       .  A
N94        Mn110   2.107       .  S
N95         C101   1.337       .  A
N96          N97   1.309       .  A
N96        Mn121   2.172       .  S
N97         C101   1.352       .  A
N98          N99   1.324   1_556  A
N98        Mn110   2.197       .  S
N99         C100   1.353   1_554  A
C100        C661   1.492   1_556  S
C101        C205   1.402   1_556  S
N102        N108   1.310       .  A
N102        N103   1.324   1_565  A
N102       Mn132   2.213       .  S
N103        C111   1.357   1_545  A
N104        N105   1.302       .  A
N104        N106   1.313       .  A
N104       Mn110   2.114       .  S
N105        C112   1.337       .  A
N106        N107   1.303       .  A
N106       Mn132   2.114       .  S
N107        C112   1.339       .  A
N108        N109   1.323   1_556  A
N108       Mn110   2.199       .  S
N109        C111   1.355   1_554  A
Mn110      Cl134   2.523       .  S
C111        C645   1.497   1_566  S
C112        C249   1.383   1_566  S
N113        N114   1.329       .  A
N113        N119   1.314       .  A
N113       Mn121   2.230       .  S
N114        C122   1.360       .  A
N115        N117   1.316       .  A
N115        N116   1.310       .  A
N115       Mn133   2.174       .  S
N116        C123   1.349       .  A
N117        N118   1.310       .  A
N117       Mn121   2.145       .  S
N118        C123   1.343       .  A
N119        N120   1.327       .  A
N119       Mn133   2.231       .  S
N120        C122   1.358       .  A
Mn121      Cl134   2.539       .  S
C122        C629   1.516       .  S
C123        C330   1.411       .  S
N124        N125   1.325   1_565  A
N124        N130   1.313       .  A
N124       Mn132   2.213       .  S
N125        C135   1.356   1_545  A
N126        N127   1.311       .  A
N126        N128   1.313       .  A
N126       Mn133   2.173       .  S
N127        C136   1.353       .  A
N128        N129   1.305       .  A
N128       Mn132   2.107       .  S
N129        C136   1.337       .  A
N130        N131   1.329       .  A
N130       Mn133   2.236       .  S
N131        C135   1.361       .  A
Mn132      Cl134   2.531       .  S
Mn133      Cl134   2.526       .  S
C135        C677   1.513   1_565  S
C136        C148   1.401   1_565  S
C137        C565   1.605       .  S
C137        C581   1.602       .  S
C137        C594   1.607       .  S
C137        C610   1.589       .  S
C138        C501   1.616       .  S
C138        C514   1.597       .  S
C138        C530   1.598       .  S
C138        C546   1.613       .  S
C139        C437   1.611       .  S
C139        C450   1.623       .  S
C139        C466   1.613       .  S
C139        C485   1.597       .  S
N140        N141   1.306       .  A
N140        N146   1.309       .  A
N140       Mn169   2.154       .  S
N141        C148   1.348       .  A
N142        N144   1.315       .  A
N142        N143   1.324   1_545  A
N142       Mn158   2.213       .  S
N143        C149   1.356   1_565  A
N144        N145   1.330       .  A
N144       Mn169   2.256       .  S
N145        C149   1.363       .  A
N146        N147   1.308   1_545  A
N146       Mn158   2.106       .  S
N147        C148   1.339   1_565  A
C149        C533   1.518   1_545  S
N150        N156   1.315       .  A
N150        N151   1.304   1_455  A
N150       Mn180   2.123       .  S
N151        C159   1.338   1_655  A
N152        N153   1.323   1_545  A
N152        N154   1.313       .  A
N152       Mn158   2.207       .  S
N153        C160   1.354   1_455  A
N154        N155   1.325   1_455  A
N154       Mn180   2.215       .  S
N155        C160   1.355   1_545  A
N156        N157   1.306   1_545  A
N156       Mn158   2.119       .  S
N157        C159   1.337   1_565  A
Mn158      Cl182   2.532       .  S
C160        C837   1.487       .  S
N161        N162   1.309       .  A
N161        N167   1.317       .  A
N161       Mn169   2.157       .  S
N162        C170   1.344       .  A
N163        N165   1.316       .  A
N163        N164   1.328       .  A
N163       Mn181   2.236       .  S
N164        C171   1.358       .  A
N165        N166   1.326       .  A
N165       Mn169   2.227       .  S
N166        C171   1.356       .  A
N167        N168   1.307       .  A
N167       Mn181   2.138       .  S
N168        C170   1.340       .  A
Mn169      Cl182   2.528       .  S
C170        C285   1.405       .  S
C171        C562   1.502       .  S
N172        N173   1.309   1_455  A
N172        N178   1.310       .  A
N172       Mn180   2.116       .  S
N173        C183   1.341   1_655  A
N174        N175   1.330       .  A
N174        N176   1.316       .  A
N174       Mn181   2.260       .  S
N175        C184   1.362       .  A
N176        N177   1.327   1_455  A
N176       Mn180   2.223       .  S
N177        C184   1.356   1_655  A
N178        N179   1.306       .  A
N178       Mn181   2.149       .  S
N179        C183   1.348       .  A
Mn180      Cl182   2.536       .  S
Mn181      Cl182   2.528       .  S
C184        C469   1.510   1_455  S
N185        N186   1.326   1_455  A
N185        N191   1.311       .  A
N185       Mn214   2.222       .  S
N186        C193   1.359   1_554  A
N187        N189   1.315       .  A
N187        N188   1.303   1_554  A
N187       Mn203   2.114       .  S
N188        C194   1.336   1_556  A
N189        N190   1.304   1_455  A
N189       Mn214   2.125       .  S
N190        C194   1.339   1_655  A
N191        N192   1.322   1_554  A
N191       Mn203   2.194       .  S
N192        C193   1.354   1_455  A
C193        C869   1.502       .  S
N195        N201   1.312       .  A
N195        N196   1.328       .  A
N195       Mn225   2.241       .  S
N196        C204   1.362   1_554  A
N197        N198   1.306   1_554  A
N197        N199   1.311       .  A
N197       Mn203   2.108       .  S
N198        C205   1.337   1_556  A
N199        N200   1.309       .  A
N199       Mn225   2.167       .  S
N200        C205   1.352       .  A
N201        N202   1.323   1_554  A
N201       Mn203   2.198       .  S
N202        C204   1.354       .  A
Mn203      Cl227   2.524       .  S
C204        C578   1.511       .  S
N206        N207   1.327   1_455  A
N206        N212   1.314       .  A
N206       Mn214   2.226       .  S
N207        C215   1.358   1_655  A
N208        N210   1.313       .  A
N208        N209   1.311       .  A
N208       Mn226   2.173       .  S
N209        C216   1.352       .  A
N210        N211   1.306   1_455  A
N210       Mn214   2.114       .  S
N211        C216   1.338   1_655  A
N212        N213   1.331       .  A
N212       Mn226   2.249       .  S
N213        C215   1.362       .  A
Mn214      Cl227   2.531       .  S
C215        C453   1.523   1_455  S
N217        N218   1.329       .  A
N217        N223   1.315       .  A
N217       Mn225   2.231       .  S
N218        C228   1.358       .  A
N219        N220   1.309       .  A
N219        N221   1.316       .  A
N219       Mn226   2.171       .  S
N220        C229   1.348       .  A
N221        N222   1.311       .  A
N221       Mn225   2.153       .  S
N222        C229   1.344       .  A
N223        N224   1.329       .  A
N223       Mn226   2.241       .  S
N224        C228   1.358       .  A
Mn225      Cl227   2.541       .  S
Mn226      Cl227   2.532       .  S
C228        C498   1.510       .  S
C229        C296   1.412       .  S
N230        N231   1.311       .  A
N230        N236   1.312       .  A
N230       Mn259   2.177       .  S
N231        C238   1.354       .  A
N232        N234   1.313       .  A
N232        N233   1.323   1_554  A
N232       Mn248   2.197       .  S
N233        C239   1.354   1_556  A
N234        N235   1.329       .  A
N234       Mn259   2.243       .  S
N235        C239   1.361       .  A
N236        N237   1.304   1_554  A
N236       Mn248   2.098       .  S
N237        C238   1.334   1_556  A
C239        C597   1.507   1_554  S
N240        N246   1.314       .  A
N240        N241   1.303   1_545  A
N240       Mn270   2.116       .  S
N241        C249   1.338   1_565  A
N242        N243   1.322   1_554  A
N242        N244   1.310       .  A
N242       Mn248   2.193       .  S
N243        C250   1.353       .  A
N244        N245   1.325   1_545  A
N244       Mn270   2.210       .  S
N245        C250   1.358   1_564  A
N246        N247   1.303   1_554  A
N246       Mn248   2.112       .  S
N247        C249   1.336   1_556  A
Mn248      Cl272   2.521       .  S
C250        C821   1.497   1_545  S
N251        N252   1.311       .  A
N251        N257   1.317       .  A
N251       Mn259   2.154       .  S
N252        C260   1.344       .  A
N253        N255   1.315       .  A
N253        N254   1.328       .  A
N253       Mn271   2.234       .  S
N254        C261   1.358       .  A
N255        N256   1.330       .  A
N255       Mn259   2.239       .  S
N256        C261   1.362       .  A
N257        N258   1.310       .  A
N257       Mn271   2.174       .  S
N258        C260   1.348       .  A
Mn259      Cl272   2.542       .  S
C260        C307   1.414       .  S
C261        C434   1.522       .  S
N262        N263   1.305       .  A
N262        N268   1.312       .  A
N262       Mn270   2.109       .  S
N263        C273   1.338       .  A
N264        N265   1.329       .  A
N264        N266   1.313       .  A
N264       Mn271   2.245       .  S
N265        C274   1.362       .  A
N266        N267   1.326   1_545  A
N266       Mn270   2.213       .  S
N267        C274   1.356   1_565  A
N268        N269   1.311       .  A
N268       Mn271   2.172       .  S
N269        C273   1.352       .  A
Mn270      Cl272   2.539       .  S
Mn271      Cl272   2.520       .  S
C274        C517   1.517   1_545  S
C275        C418   1.590       .  S
C275        C658   1.592       .  S
C275        C722   1.621       .  S
C275        C754   1.636       .  S
C276        C405   1.616       .  S
C276        C626   1.597       .  S
C276        C741   1.616       .  S
C276        C789   1.603       .  S
N277        N278   1.307       .  A
N277        N283   1.314       .  A
N277       Mn306   2.131       .  S
N278        C285   1.340       .  A
N279        N281   1.315       .  A
N279        N280   1.326       .  A
N279       Mn295   2.224       .  S
N280        C286   1.357       .  A
N281        N282   1.324       .  A
N281       Mn306   2.219       .  S
N282        C286   1.357       .  A
N283        N284   1.309       .  A
N283       Mn295   2.148       .  S
N284        C285   1.344       .  A
C286        C373   1.501       .  S
N287        N293   1.312       .  A
N287        N288   1.308       .  A
N287       Mn317   2.157       .  S
N288        C296   1.346       .  A
N289        N290   1.328       .  A
N289        N291   1.315       .  A
N289       Mn295   2.233       .  S
N290        C297   1.359       .  A
N291        N292   1.327       .  A
N291       Mn317   2.242       .  S
N292        C297   1.360       .  A
N293        N294   1.312       .  A
N293       Mn295   2.145       .  S
N294        C296   1.345       .  A
Mn295      Cl319   2.543       .  S
C297        C402   1.518       .  S
N298        N299   1.312       .  A
N298        N304   1.313       .  A
N298       Mn306   2.142       .  S
N299        C307   1.344       .  A
N300        N302   1.315       .  A
N300        N301   1.327       .  A
N300       Mn318   2.232       .  S
N301        C308   1.358       .  A
N302        N303   1.326       .  A
N302       Mn306   2.223       .  S
N303        C308   1.356       .  A
N304        N305   1.309       .  A
N304       Mn318   2.162       .  S
N305        C307   1.346       .  A
Mn306      Cl319   2.542       .  S
C308        C386   1.498       .  S
N309        N310   1.312       .  A
N309        N315   1.316       .  A
N309       Mn317   2.157       .  S
N310        C320   1.344       .  A
N311        N312   1.325       .  A
N311        N313   1.315       .  A
N311       Mn318   2.214       .  S
N312        C321   1.354       .  A
N313        N314   1.326       .  A
N313       Mn317   2.227       .  S
N314        C321   1.356       .  A
N315        N316   1.310       .  A
N315       Mn318   2.159       .  S
N316        C320   1.344       .  A
Mn317      Cl319   2.535       .  S
Mn318      Cl319   2.532       .  S
C320        C352   1.419       .  S
C321        C421   1.494       .  S
N322        N323   1.308       .  A
N322        N328   1.312       .  A
N322       Mn351   2.159       .  S
N323        C330   1.346       .  A
N324        N326   1.315       .  A
N324        N325   1.325       .  A
N324       Mn340   2.227       .  S
N325        C331   1.359       .  A
N326        N327   1.329       .  A
N326       Mn351   2.239       .  S
N327        C331   1.360       .  A
N328        N329   1.311       .  A
N328       Mn340   2.139       .  S
N329        C330   1.344       .  A
C331        C549   1.518       .  S
N332        N338   1.314       .  A
N332        N333   1.307       .  A
N332       Mn362   2.139       .  S
N333        C341   1.341       .  A
N334        N335   1.324       .  A
N334        N336   1.313       .  A
N334       Mn340   2.215       .  S
N335        C342   1.357       .  A
N336        N337   1.323       .  A
N336       Mn362   2.208       .  S
N337        C342   1.356       .  A
N338        N339   1.309       .  A
N338       Mn340   2.147       .  S
N339        C341   1.344       .  A
Mn340      Cl364   2.540       .  S
C342        C853   1.502       .  S
N343        N344   1.312       .  A
N343        N349   1.317       .  A
N343       Mn351   2.165       .  S
N344        C352   1.346       .  A
N345        N347   1.314       .  A
N345        N346   1.324       .  A
N345       Mn363   2.218       .  S
N346        C353   1.357       .  A
N347        N348   1.325       .  A
N347       Mn351   2.216       .  S
N348        C353   1.357       .  A
N349        N350   1.309       .  A
N349       Mn363   2.156       .  S
N350        C352   1.343       .  A
Mn351      Cl364   2.535       .  S
C353        C613   1.505       .  S
N354        N355   1.312       .  A
N354        N360   1.311       .  A
N354       Mn362   2.142       .  S
N355        C365   1.345       .  A
N356        N357   1.330       .  A
N356        N358   1.314       .  A
N356       Mn363   2.247       .  S
N357        C366   1.363       .  A
N358        N359   1.324       .  A
N358       Mn362   2.213       .  S
N359        C366   1.355       .  A
N360        N361   1.308       .  A
N360       Mn363   2.154       .  S
N361        C365   1.345       .  A
Mn362      Cl364   2.541       .  S
Mn363      Cl364   2.531       .  S
C366        C482   1.517       .  S
C367        C389   1.607       .  S
C367        C674   1.617       .  S
C367        C690   1.614       .  S
C367        C805   1.595       .  S
C368        C370   1.629       .  S
C368        C642   1.582       .  S
C368        C709   1.609       .  S
C368        C773   1.617       .  S
C369        C370   1.427       .  A
C369        C374   1.414       .  A
C369        H376   1.078       .  S
C370        C371   1.446       .  A
C371        C378   1.512       .  S
C371        C372   1.414       .  A
C372        C373   1.398       .  A
C372        H377   1.085       .  S
C373        C374   1.409       .  A
C374        C375   1.507       .  S
C375        H379   1.111       .  S
C375        H380   1.111       .  S
C375        H381   1.109       .  S
C378        H382   1.099       .  S
C378        H383   1.111       .  S
C378        H384   1.112       .  S
C385        C386   1.390       .  A
C385        C390   1.415       .  A
C385        H392   1.085       .  S
C386        C387   1.407       .  A
C387        C394   1.505       .  S
C387        C388   1.417       .  A
C388        C389   1.428       .  A
C388        H393   1.083       .  S
C389        C390   1.457       .  A
C390        C391   1.515       .  S
C391        H395   1.111       .  S
C391        H396   1.100       .  S
C391        H397   1.104       .  S
C394        H398   1.110       .  S
C394        H399   1.110       .  S
C394        H400   1.111       .  S
C401        C402   1.400       .  A
C401        C406   1.418       .  A
C401        H408   1.084       .  S
C402        C403   1.416       .  A
C403        C410   1.507       .  S
C403        C404   1.421       .  A
C404        C405   1.426       .  A
C404        H409   1.077       .  S
C405        C406   1.446       .  A
C406        C407   1.509       .  S
C407        H411   1.111       .  S
C407        H412   1.105       .  S
C407        H413   1.101       .  S
C410        H414   1.110       .  S
C410        H415   1.109       .  S
C410        H416   1.111       .  S
C417        C418   1.423       .  A
C417        C422   1.413       .  A
C417        H424   1.079       .  S
C418        C419   1.445       .  A
C419        C426   1.512       .  S
C419        C420   1.414       .  A
C420        C421   1.394       .  A
C420        H425   1.084       .  S
C421        C422   1.409       .  A
C422        C423   1.507       .  S
C423        H427   1.111       .  S
C423        H428   1.110       .  S
C423        H429   1.110       .  S
C426        H430   1.104       .  S
C426        H431   1.102       .  S
C426        H432   1.111       .  S
C433        C434   1.402       .  A
C433        C438   1.418       .  A
C433        H440   1.085       .  S
C434        C435   1.418       .  A
C435        C442   1.508       .  S
C435        C436   1.422       .  A
C436        C437   1.426       .  A
C436        H441   1.076       .  S
C437        C438   1.446       .  A
C438        C439   1.511       .  S
C439        H443   1.110       .  S
C439        H444   1.111       .  S
C439        H445   1.096       .  S
C442        H446   1.110       .  S
C442        H447   1.109       .  S
C442        H448   1.111       .  S
C449        C450   1.428       .  A
C449        C454   1.418       .  A
C449        H456   1.076       .  S
C450        C451   1.445       .  A
C451        C458   1.509       .  S
C451        C452   1.426       .  A
C452        C453   1.404       .  A
C452        H457   1.084   1_655  S
C453        C454   1.415       .  A
C454        C455   1.509       .  S
C455        H459   1.111       .  S
C455        H460   1.110       .  S
C455        H461   1.109       .  S
C458        H462   1.106       .  S
C458        H463   1.099       .  S
C458        H464   1.111       .  S
C465        C466   1.427       .  A
C465        C470   1.422       .  A
C465        H472   1.083       .  S
C466        C467   1.459       .  A
C467        C474   1.515       .  S
C467        C468   1.419       .  A
C468        C469   1.392       .  A
C468        H473   1.085       .  S
C469        C470   1.410       .  A
C470        C471   1.504   1_655  S
C471        H475   1.111       .  S
C471        H476   1.110       .  S
C471        H477   1.110       .  S
C474        H478   1.105       .  S
C474        H479   1.099       .  S
C474        H480   1.111       .  S
C481        C482   1.402       .  A
C481        C486   1.419       .  A
C481        H488   1.083       .  S
C482        C483   1.419       .  A
C483        C490   1.508       .  S
C483        C484   1.416       .  A
C484        C485   1.420       .  A
C484        H489   1.077       .  S
C485        C486   1.443       .  A
C486        C487   1.512       .  S
C487        H491   1.107       .  S
C487        H492   1.111       .  S
C487        H493   1.107       .  S
C490        H494   1.109       .  S
C490        H495   1.110       .  S
C490        H496   1.111       .  S
C497        C498   1.399       .  A
C497        C502   1.424       .  A
C497        H504   1.084       .  S
C498        C499   1.409       .  A
C499        C506   1.507       .  S
C499        C500   1.418       .  A
C500        C501   1.428       .  A
C500        H505   1.074       .  S
C501        C502   1.446       .  A
C502        C503   1.508       .  S
C503        H507   1.111       .  S
C503        H508   1.106       .  S
C503        H509   1.102       .  S
C506        H510   1.110       .  S
C506        H511   1.111       .  S
C506        H512   1.111       .  S
C513        C514   1.422       .  A
C513        C518   1.418       .  A
C513        H520   1.083       .  S
C514        C515   1.451       .  A
C515        C522   1.513   1_565  S
C515        C516   1.419       .  A
C516        C517   1.400       .  A
C516        H521   1.085   1_565  S
C517        C518   1.418       .  A
C518        C519   1.507       .  S
C519        H523   1.111       .  S
C519        H524   1.110       .  S
C519        H525   1.109       .  S
C522        H526   1.110       .  S
C522        H527   1.095   1_545  S
C522        H528   1.112       .  S
C529        C530   1.425       .  A
C529        C534   1.417       .  A
C529        H536   1.078       .  S
C530        C531   1.444       .  A
C531        C538   1.511       .  S
C531        C532   1.420       .  A
C532        C533   1.404       .  A
C532        H537   1.084       .  S
C533        C534   1.414       .  A
C534        C535   1.507   1_565  S
C535        H539   1.111       .  S
C535        H540   1.110   1_545  S
C535        H541   1.109       .  S
C538        H542   1.106       .  S
C538        H543   1.103       .  S
C538        H544   1.111       .  S
C545        C546   1.425       .  A
C545        C550   1.418       .  A
C545        H552   1.081       .  S
C546        C547   1.449       .  A
C547        C554   1.514       .  S
C547        C548   1.418       .  A
C548        C549   1.401       .  A
C548        H553   1.085       .  S
C549        C550   1.416       .  A
C550        C551   1.507       .  S
C551        H555   1.111       .  S
C551        H556   1.110       .  S
C551        H557   1.110       .  S
C554        H558   1.101       .  S
C554        H559   1.107       .  S
C554        H560   1.112       .  S
C561        C562   1.395       .  A
C561        C566   1.416       .  A
C561        H568   1.086       .  S
C562        C563   1.408       .  A
C563        C570   1.505       .  S
C563        C564   1.418       .  A
C564        C565   1.427       .  A
C564        H569   1.083       .  S
C565        C566   1.454       .  A
C566        C567   1.515       .  S
C567        H571   1.110       .  S
C567        H572   1.112       .  S
C567        H573   1.093       .  S
C570        H574   1.110       .  S
C570        H575   1.110       .  S
C570        H576   1.111       .  S
C577        C578   1.399       .  A
C577        C582   1.413       .  A
C577        H584   1.085       .  S
C578        C579   1.417       .  A
C579        C586   1.509       .  S
C579        C580   1.415       .  A
C580        C581   1.424       .  A
C580        H585   1.075       .  S
C581        C582   1.446       .  A
C582        C583   1.511       .  S
C583        H587   1.111       .  S
C583        H588   1.110       .  S
C583        H589   1.095       .  S
C586        H590   1.109       .  S
C586        H591   1.110       .  S
C586        H592   1.111       .  S
C593        C594   1.427       .  A
C593        C598   1.414       .  A
C593        H600   1.077       .  S
C594        C595   1.441       .  A
C595        C602   1.510       .  S
C595        C596   1.416       .  A
C596        C597   1.402       .  A
C596        H601   1.084       .  S
C597        C598   1.410       .  A
C598        C599   1.507   1_556  S
C599        H603   1.111       .  S
C599        H604   1.109       .  S
C599        H605   1.110       .  S
C602        H606   1.099       .  S
C602        H607   1.106       .  S
C602        H608   1.111       .  S
C609        C610   1.423       .  A
C609        C614   1.411       .  A
C609        H616   1.076       .  S
C610        C611   1.441       .  A
C611        C618   1.512       .  S
C611        C612   1.415       .  A
C612        C613   1.402       .  A
C612        H617   1.084       .  S
C613        C614   1.413       .  A
C614        C615   1.509       .  S
C615        H619   1.111       .  S
C615        H620   1.110       .  S
C615        H621   1.109       .  S
C618        H622   1.105       .  S
C618        H623   1.111       .  S
C618        H624   1.107       .  S
C625        C626   1.425       .  A
C625        C630   1.419       .  A
C625        H632   1.083       .  S
C626        C627   1.450       .  A
C627        C634   1.513       .  S
C627        C628   1.419       .  A
C628        C629   1.401       .  A
C628        H633   1.085       .  S
C629        C630   1.415       .  A
C630        C631   1.506       .  S
C631        H635   1.111       .  S
C631        H636   1.110       .  S
C631        H637   1.110       .  S
C634        H638   1.109       .  S
C634        H639   1.091       .  S
C634        H640   1.112       .  S
C641        C642   1.422       .  A
C641        C646   1.408       .  A
C641        H648   1.081       .  S
C642        C643   1.446       .  A
C643        C650   1.514   1_545  S
C643        C644   1.413       .  A
C644        C645   1.400       .  A
C644        H649   1.085   1_545  S
C645        C646   1.411       .  A
C646        C647   1.508   1_554  S
C647        H651   1.111       .  S
C647        H652   1.110       .  S
C647        H653   1.110   1_556  S
C650        H654   1.100   1_565  S
C650        H655   1.110       .  S
C650        H656   1.112       .  S
C657        C658   1.422       .  A
C657        C662   1.417       .  A
C657        H664   1.084       .  S
C658        C659   1.444       .  A
C659        C666   1.512       .  S
C659        C660   1.410       .  A
C660        C661   1.395       .  A
C660        H665   1.085       .  S
C661        C662   1.409       .  A
C662        C663   1.504   1_554  S
C663        H667   1.111       .  S
C663        H668   1.110       .  S
C663        H669   1.110       .  S
C666        H670   1.106       .  S
C666        H671   1.106       .  S
C666        H672   1.112       .  S
C673        C674   1.426       .  A
C673        C678   1.414       .  A
C673        H680   1.073       .  S
C674        C675   1.447       .  A
C675        C682   1.511       .  S
C675        C676   1.422       .  A
C676        C677   1.402       .  A
C676        H681   1.084   1_545  S
C677        C678   1.412       .  A
C678        C679   1.509       .  S
C679        H683   1.111       .  S
C679        H684   1.111       .  S
C679        H685   1.109       .  S
C682        H686   1.099       .  S
C682        H687   1.106       .  S
C682        H688   1.111       .  S
C689        C690   1.429       .  A
C689        C694   1.417       .  A
C689        H696   1.075       .  S
C690        C691   1.448       .  A
C691        C698   1.510       .  S
C691        C692   1.422       .  A
C692        C693   1.400       .  A
C692        H697   1.085       .  S
C693        C694   1.408       .  A
C694        C695   1.508       .  S
C695        H699   1.111       .  S
C695        H700   1.110       .  S
C695        H701   1.110       .  S
C698        H702   1.099       .  S
C698        H703   1.111       .  S
C698        H704   1.110       .  S
C705        C706   1.391   1_556  A
C705        C710   1.415   1_556  A
C705        H712   1.085       .  S
C706        C707   1.407       .  A
C707        C714   1.507       .  S
C707        C708   1.411       .  A
C708        C709   1.425       .  A
C708        H713   1.082       .  S
C709        C710   1.452       .  A
C710        C711   1.509       .  S
C711        H715   1.111   1_554  S
C711        H716   1.102       .  S
C711        H717   1.104   1_554  S
C714        H718   1.109   1_455  S
C714        H719   1.111       .  S
C714        H720   1.111       .  S
C721        C722   1.426       .  A
C721        C726   1.413       .  A
C721        H728   1.079       .  S
C722        C723   1.453       .  A
C723        C730   1.513   1_554  S
C723        C724   1.418   1_554  A
C724        C725   1.396   1_556  A
C724        H729   1.085       .  S
C725        C726   1.409       .  A
C726        C727   1.508       .  S
C727        H731   1.111       .  S
C727        H732   1.110       .  S
C727        H733   1.110       .  S
C730        H734   1.098   1_556  S
C730        H735   1.112       .  S
C730        H736   1.110       .  S
C737        C738   1.400       .  A
C737        C742   1.420       .  A
C737        H744   1.085       .  S
C738        C739   1.414       .  A
C739        C746   1.506   1_455  S
C739        C740   1.419       .  A
C740        C741   1.428       .  A
C740        H745   1.082       .  S
C741        C742   1.455       .  A
C742        C743   1.518       .  S
C743        H747   1.112       .  S
C743        H748   1.096       .  S
C743        H749   1.110       .  S
C746        H750   1.110       .  S
C746        H751   1.110       .  S
C746        H752   1.111       .  S
C753        C754   1.436       .  A
C753        C758   1.418       .  A
C753        H760   1.077       .  S
C754        C755   1.452       .  A
C755        C762   1.500       .  S
C755        C756   1.422       .  A
C756        C757   1.398       .  A
C756        H761   1.083       .  S
C757        C758   1.413       .  A
C758        C759   1.509       .  S
C759        H763   1.111       .  S
C759        H764   1.110       .  S
C759        H765   1.110       .  S
C762        H766   1.105       .  S
C762        H767   1.105       .  S
C762        H768   1.111       .  S
C769        C770   1.397       .  A
C769        C774   1.420       .  A
C769        H776   1.084   1_455  S
C770        C771   1.407       .  A
C771        C778   1.509   1_545  S
C771        C772   1.410       .  A
C772        C773   1.421       .  A
C772        H777   1.056       .  S
C773        C774   1.458       .  A
C774        C775   1.511   1_455  S
C775        H779   1.111       .  S
C775        H780   1.105       .  S
C775        H781   1.104   1_655  S
C778        H782   1.110       .  S
C778        H783   1.110       .  S
C778        H784   1.111       .  S
C785        C786   1.399       .  A
C785        C790   1.419       .  A
C785        H792   1.085   1_455  S
C786        C787   1.407       .  A
C787        C794   1.507       .  S
C787        C788   1.414       .  A
C788        C789   1.428       .  A
C788        H793   1.077       .  S
C789        C790   1.444       .  A
C790        C791   1.502       .  S
C791        H795   1.110   1_455  S
C791        H796   1.110       .  S
C791        H797   1.087       .  S
C794        H798   1.110       .  S
C794        H799   1.110       .  S
C794        H800   1.111       .  S
C801        C802   1.406       .  A
C801        C806   1.416       .  A
C801        H808   1.083       .  S
C802        C803   1.413   1_545  A
C803        C810   1.507       .  S
C803        C804   1.417   1_565  A
C804        C805   1.426       .  A
C804        H809   1.075       .  S
C805        C806   1.439       .  A
C806        C807   1.513       .  S
C807        H811   1.111       .  S
C807        H812   1.107       .  S
C807        H813   1.108       .  S
C810        H814   1.110       .  S
C810        H815   1.110       .  S
C810        H816   1.111       .  S
C817        C818   1.423       .  A
C817        C822   1.409       .  A
C817        H824   1.076       .  S
C818        C819   1.442       .  A
C819        C826   1.511       .  S
C819        C820   1.409       .  A
C820        C821   1.399       .  A
C820        H825   1.085       .  S
C821        C822   1.412       .  A
C822        C823   1.509   1_565  S
C823        H827   1.111       .  S
C823        H828   1.110       .  S
C823        H829   1.109       .  S
C826        H830   1.111       .  S
C826        H831   1.096       .  S
C826        H832   1.110       .  S
C833        C834   1.425       .  A
C833        C838   1.405       .  A
C833        H840   1.076       .  S
C834        C835   1.443       .  A
C835        C842   1.513       .  S
C835        C836   1.416       .  A
C836        C837   1.398       .  A
C836        H841   1.084   1_655  S
C837        C838   1.403       .  A
C838        C839   1.509       .  S
C839        H843   1.111       .  S
C839        H844   1.110       .  S
C839        H845   1.110       .  S
C842        H846   1.107       .  S
C842        H847   1.104       .  S
C842        H848   1.111       .  S
C849        C850   1.422       .  A
C849        C854   1.410       .  A
C849        H856   1.076       .  S
C850        C851   1.442       .  A
C851        C858   1.513       .  S
C851        C852   1.412       .  A
C852        C853   1.400       .  A
C852        H857   1.084       .  S
C853        C854   1.413       .  A
C854        C855   1.509       .  S
C855        H859   1.111       .  S
C855        H860   1.109       .  S
C855        H861   1.110       .  S
C858        H862   1.105       .  S
C858        H863   1.107       .  S
C858        H864   1.111       .  S
C865        C866   1.425       .  A
C865        C870   1.409       .  A
C865        H872   1.075       .  S
C866        C867   1.440       .  A
C867        C874   1.514       .  S
C867        C868   1.414       .  A
C868        C869   1.404       .  A
C868        H873   1.084   1_655  S
C869        C870   1.410       .  A
C870        C871   1.509   1_556  S
C871        H875   1.111       .  S
C871        H876   1.110       .  S
C871        H877   1.109       .  S
C874        H878   1.108       .  S
C874        H879   1.104       .  S
C874        H880   1.111       .  S
