geometry optimzed in LAMMPS
_audit_creation_date              2020-11-30 
_audit_creation_method            'lammps2cif' 
_symmetry_space_group_name_H-M    'P1' 
_symmetry_Int_Tables_number       1 
_symmetry_cell_setting            triclinic 
loop_ 
_symmetry_equiv_pos_as_xyz 
  x,y,z 
_cell_length_a                    44.68766699 
_cell_length_b                    44.5745975196795 
_cell_length_c                    55.35782271156702 
_cell_angle_alpha                 89.60328700340138 
_cell_angle_beta                  90.43760696929733 
_cell_angle_gamma                 89.02405185373863 
loop_ 
_atom_site_label 
_atom_site_type_symbol 
_atom_site_fract_x 
_atom_site_fract_y 
_atom_site_fract_z 
_atom_site_charge 
N1          N  0.03998391  0.03382834  0.14020196    -0.36400
N2          N  0.98742250  0.48368324  0.14219683    -0.56900
N3          N  0.48426797  0.47717773  0.19603344    -0.36400
N4          N  0.52298993  0.02400414  0.19454294    -0.56900
C5          C  0.03168312  0.03506685  0.11658211     0.27200
C6          C  0.04941180  0.06147385  0.14627187     0.27200
C7          C  0.46081874  0.45895758  0.19286780     0.27200
C8          C  0.48535329  0.48441049  0.21971516     0.27200
C9          C  0.99484577  0.48509441  0.11858196     0.35800
C10         C  0.97680326  0.45585519  0.14602154     0.35800
C11         C  0.54166809  0.04657920  0.18978608     0.35800
C12         C  0.52519237  0.01815816  0.21844015     0.35800
C13         C  0.03722367  0.06326894  0.10721112    -0.21600
C14         C  0.04800502  0.08008872  0.12601970    -0.21600
C15         C  0.44660926  0.45452365  0.21474958    -0.21600
C16         C  0.46200233  0.47078024  0.23171961    -0.21600
C17         C  0.98788870  0.45852622  0.10715539    -0.22700
C18         C  0.97681904  0.43980818  0.12462644    -0.22700
C19         C  0.55647754  0.05481412  0.21078209    -0.22700
C20         C  0.54616058  0.03664124  0.22895195    -0.22700
C21         C  0.00768140  0.51017058  0.10723094    -0.18100
C22         C  0.05859910  0.07075551  0.16961522    -0.18100
C23         C  0.50549615  0.99947630  0.23117630    -0.18000
C24         C  0.45612142  0.44172523  0.17196773    -0.18000
H25         H  0.03281021  0.07125094  0.08899448     0.14900
H26         H  0.05385699  0.10351545  0.12490960     0.14900
H27         H  0.42803547  0.43988609  0.21826727     0.14900
H28         H  0.45729196  0.47140634  0.25086183     0.14900
H29         H  0.99121168  0.45291382  0.08836388     0.13100
H30         H  0.96979074  0.41698755  0.12181082     0.13100
H31         H  0.57138888  0.07349572  0.21304070     0.13100
H32         H  0.55188931  0.03828674  0.24792327     0.13100
H33         H  0.04020285  0.01483960  0.15125873     0.26400
H34         H  0.50118932  0.48006357  0.18351429     0.26400
N35         N  0.03378983  0.23627883  0.14337113    -0.36400
N36         N  0.98680131  0.28205445  0.14147392    -0.56900
N37         N  0.46411142  0.27755911  0.19505075    -0.36400
N38         N  0.50631541  0.22979986  0.19696528    -0.56900
C39         C  0.02586668  0.23593781  0.11966539     0.27200
C40         C  0.04468471  0.20861544  0.14904102     0.27200
C41         C  0.44133701  0.29665410  0.18964370     0.27200
C42         C  0.46202682  0.27036132  0.21876850     0.27200
C43         C  0.99693756  0.28347166  0.11856257     0.35800
C44         C  0.97360750  0.30895639  0.14572294     0.35800
C45         C  0.52804411  0.20906717  0.19353720     0.35800
C46         C  0.50563622  0.23541729  0.22088437     0.35800
C47         C  0.03287946  0.20826447  0.10985930    -0.21600
C48         C  0.04439192  0.19086415  0.12844325    -0.21600
C49         C  0.42440847  0.30182355  0.21012118    -0.21600
C50         C  0.43729614  0.28492050  0.22851460    -0.21600
C51         C  0.98933247  0.31077233  0.10796298    -0.22700
C52         C  0.97492227  0.32715410  0.12529582    -0.22700
C53         C  0.54145635  0.20140707  0.21546772    -0.22700
C54         C  0.52740159  0.21835219  0.23282456    -0.22700
C55         C  0.01217298  0.26000211  0.10683881    -0.18100
C56         C  0.53110216  0.19247096  0.17211765    -0.18100
C57         C  0.48353607  0.25334859  0.23211872    -0.18000
C58         C  0.44058012  0.31502378  0.16887405    -0.18000
H59         H  0.02915886  0.20105273  0.09145822     0.14900
H60         H  0.05155909  0.16764379  0.12691515     0.14900
H61         H  0.40578019  0.31749056  0.21184317     0.14900
H62         H  0.43016529  0.28456544  0.24715478     0.14900
H63         H  0.99443727  0.31839177  0.08987571     0.13100
H64         H  0.96670299  0.34994703  0.12299871     0.13100
H65         H  0.55851090  0.18427695  0.21869444     0.13100
H66         H  0.53168946  0.21713522  0.25208180     0.13100
H67         H  0.03304035  0.25481156  0.15470328     0.26400
H68         H  0.48271741  0.27438965  0.18415934     0.26400
N69         N  0.26226153  0.45983195  0.14604454    -0.36400
N70         N  0.22786195  0.00210087  0.14244275    -0.56900
N71         N  0.22961313  0.00162313  0.19594599    -0.36400
N72         N  0.27243459  0.46367929  0.19899167    -0.56900
C73         C  0.26089966  0.46519023  0.12191462     0.27200
C74         C  0.28607826  0.44169908  0.15046087     0.27200
C75         C  0.21767004  0.02910938  0.19114656     0.27200
C76         C  0.24054657  0.00222087  0.21885589     0.27200
C77         C  0.22647774  0.99664775  0.11845325     0.35800
C78         C  0.20566111  0.02181390  0.14750448     0.35800
C79         C  0.28195928  0.43536140  0.19465055     0.35800
C80         C  0.26586094  0.46463420  0.22278250     0.35800
C81         C  0.28453498  0.44986709  0.11096854    -0.21600
C82         C  0.30020645  0.43497129  0.12900189    -0.21600
C83         C  0.22054938  0.04704415  0.21147588    -0.21600
C84         C  0.23457775  0.02989754  0.22904037    -0.21600
C85         C  0.20291242  0.01321869  0.10822313    -0.22700
C86         C  0.18982031  0.02909314  0.12662809    -0.22700
C87         C  0.28230715  0.41860148  0.21588626    -0.22700
C88         C  0.27257905  0.43741229  0.23385089    -0.22700
C89         C  0.23703581  0.48084628  0.10978414    -0.18100
C90         C  0.28911402  0.42427982  0.17155787    -0.18100
C91         C  0.25393229  0.49005650  0.23438887    -0.18000
C92         C  0.20436659  0.03857394  0.16897125    -0.18000
H93         H  0.28927944  0.44754081  0.09198339     0.14900
H94         H  0.31848286  0.41907027  0.12648047     0.14900
H95         H  0.21342606  0.07018105  0.21358062     0.14900
H96         H  0.24025739  0.03717714  0.24708898     0.14900
H97         H  0.19660928  0.01546138  0.08941888     0.13100
H98         H  0.17191588  0.04562148  0.12466328     0.13100
H99         H  0.28854520  0.39520403  0.21820956     0.13100
H100        H  0.26972808  0.43145760  0.25267068     0.13100
H101        H  0.24516481  0.46308294  0.15842404     0.26400
H102        H  0.22868680  0.98296490  0.18478982     0.26400
N103        N  0.24793525  0.25920411  0.14420985    -0.36400
N104        N  0.21287726  0.20690329  0.14533773    -0.56900
N105        N  0.21548333  0.20631025  0.19867233    -0.36400
N106        N  0.25174749  0.25950689  0.19717376    -0.56900
C107        C  0.24951089  0.25184735  0.12054591     0.27200
C108        C  0.26751444  0.28134195  0.14807868     0.27200
C109        C  0.20830344  0.17754890  0.19397461     0.27200
C110        C  0.22612439  0.20711301  0.22167278     0.27200
C111        C  0.21156119  0.21164908  0.12121609     0.35800
C112        C  0.19490680  0.18376753  0.15027464     0.35800
C113        C  0.26031622  0.28778357  0.19227217     0.35800
C114        C  0.24541122  0.25874962  0.22101007     0.35800
C115        C  0.27038509  0.27001133  0.10934083    -0.21600
C116        C  0.28166983  0.28857064  0.12673228    -0.21600
C117        C  0.21382510  0.16007895  0.21447906    -0.21600
C118        C  0.22464819  0.17885292  0.23204246    -0.21600
C119        C  0.19211581  0.19148742  0.11072051    -0.22700
C120        C  0.18148458  0.17395876  0.12914115    -0.22700
C121        C  0.25991523  0.30485869  0.21313383    -0.22700
C122        C  0.25075364  0.28632177  0.23141535    -0.22700
C123        C  0.23073585  0.23116878  0.10858300    -0.18100
C124        C  0.26938018  0.29820371  0.16938603    -0.18100
C125        C  0.23631462  0.23297012  0.23365112    -0.18000
C126        C  0.19705771  0.16657237  0.17172023    -0.18000
H127        H  0.27620793  0.27112594  0.09046476     0.14900
H128        H  0.29758084  0.30625341  0.12381267     0.14900
H129        H  0.21045170  0.13623693  0.21665564     0.14900
H130        H  0.23130805  0.17232287  0.25019462     0.14900
H131        H  0.18735689  0.18825924  0.09175171     0.13100
H132        H  0.16740578  0.15460574  0.12701863     0.13100
H133        H  0.26579534  0.32818210  0.21505060     0.13100
H134        H  0.24815067  0.29247494  0.25017054     0.13100
H135        H  0.23147338  0.25313917  0.15633558     0.26400
H136        H  0.21144730  0.22472421  0.18739598     0.26400
N137        N  0.03544748  0.01817054  0.42333644    -0.36400
N138        N  0.48498277  0.97630653  0.42606105    -0.56900
N139        N  0.48299329  0.98068565  0.37247555    -0.36400
N140        N  0.03477294  0.02253913  0.37020174    -0.56900
C141        C  0.03530273  0.00723596  0.44622025     0.27200
C142        C  0.06357172  0.02746254  0.41897123     0.27200
C143        C  0.46493017  0.95755154  0.37716975     0.27200
C144        C  0.48910492  0.98011002  0.34853973     0.27200
C145        C  0.48481632  0.98453678  0.44955329     0.35800
C146        C  0.45748718  0.96569478  0.42121655     0.35800
C147        C  0.05740202  0.04098497  0.37533301     0.35800
C148        C  0.02972424  0.02463327  0.34618250     0.35800
C149        C  0.06315056  0.01076453  0.45687172    -0.21600
C150        C  0.08112272  0.02317511  0.43958620    -0.21600
C151        C  0.45935338  0.94201923  0.35599653    -0.21600
C152        C  0.47458133  0.95633481  0.33787752    -0.21600
C153        C  0.45741520  0.97861293  0.45985147    -0.22700
C154        C  0.43990844  0.96704035  0.44180298    -0.22700
C155        C  0.06673217  0.05527213  0.35443494    -0.22700
C156        C  0.04901264  0.04507562  0.33594872    -0.22700
C157        C  0.50956239  0.99647692  0.46185420    -0.18100
C158        C  0.07423526  0.03919630  0.39686193    -0.18100
C159        C  0.50640760  0.00135278  0.33606733    -0.18000
C160        C  0.44831163  0.95441170  0.39854385    -0.18000
H161        H  0.07004748  0.00422606  0.47496971     0.14900
H162        H  0.10454598  0.02832685  0.44193602     0.14900
H163        H  0.44452813  0.92327591  0.35369884     0.14900
H164        H  0.47437595  0.95034855  0.31896427     0.14900
H165        H  0.45058792  0.98275742  0.47826939     0.13100
H166        H  0.41683538  0.96054263  0.44372027     0.13100
H167        H  0.08558228  0.07002050  0.35253570     0.13100
H168        H  0.05138411  0.05064081  0.31700917     0.13100
H169        H  0.01697699  0.02062738  0.41194449     0.26400
H170        H  0.48660696  0.99837687  0.38423124     0.26400
N171        N  0.01160993  0.23138470  0.42695471    -0.36400
N172        N  0.45929134  0.28096942  0.42543482    -0.56900
N173        N  0.45724415  0.27426140  0.37263161    -0.36400
N174        N  0.01382351  0.23316903  0.37335796    -0.56900
C175        C  0.01062346  0.24008171  0.45034457     0.27200
C176        C  0.03989658  0.22168203  0.42271611     0.27200
C177        C  0.43673083  0.29620981  0.37628461     0.27200
C178        C  0.46290658  0.27355543  0.34863612     0.27200
C179        C  0.46031589  0.27445774  0.44933480     0.35800
C180        C  0.43135353  0.29171071  0.42082330     0.35800
C181        C  0.03462606  0.21193820  0.37851882     0.35800
C182        C  0.00958552  0.23297470  0.34917542     0.35800
C183        C  0.03815591  0.23487761  0.46133721    -0.21600
C184        C  0.05677297  0.22371347  0.44384625    -0.21600
C185        C  0.42896032  0.30962150  0.35441951    -0.21600
C186        C  0.44567186  0.29549930  0.33695638    -0.21600
C187        C  0.43349898  0.28234561  0.46015010    -0.22700
C188        C  0.41497922  0.29296027  0.44201064    -0.22700
C189        C  0.04356552  0.19778663  0.35744541    -0.22700
C190        C  0.02766137  0.21112142  0.33882020    -0.22700
C191        C  0.48525821  0.26149668  0.46143431    -0.18100
C192        C  0.05088954  0.21087254  0.40040178    -0.18100
C193        C  0.48132211  0.25209201  0.33687631    -0.18000
C194        C  0.42009988  0.29936397  0.39761518    -0.18000
H195        H  0.04447578  0.23949505  0.47983688     0.14900
H196        H  0.08017001  0.21798606  0.44656025     0.14900
H197        H  0.41182819  0.32670393  0.35130672     0.14900
H198        H  0.44413851  0.29996182  0.31774603     0.14900
H199        H  0.42758815  0.27985027  0.47897700     0.13100
H200        H  0.39198412  0.30036897  0.44419500     0.13100
H201        H  0.06126570  0.18110027  0.35557354     0.13100
H202        H  0.03037288  0.20638263  0.31981257     0.13100
H203        H  0.99358282  0.23046807  0.41499739     0.26400
H204        H  0.46272671  0.25780221  0.38528332     0.26400
N205        N  0.23212009  0.52426822  0.42762819    -0.36400
N206        N  0.28038221  0.47952477  0.42882873    -0.56900
N207        N  0.27676765  0.47685277  0.37601145    -0.36400
N208        N  0.22948744  0.51863782  0.37437604    -0.56900
C209        C  0.23281345  0.51616476  0.45127189     0.27200
C210        C  0.20389043  0.53391549  0.42253244     0.27200
C211        C  0.29583278  0.45417541  0.38166816     0.27200
C212        C  0.26838065  0.47342445  0.35268870     0.27200
C213        C  0.28197686  0.49020873  0.45159358     0.35800
C214        C  0.30785777  0.46827060  0.42372363     0.35800
C215        C  0.20932810  0.54079049  0.37804084     0.35800
C216        C  0.23420931  0.51737771  0.35033445     0.35800
C217        C  0.20515536  0.52173016  0.46155642    -0.21600
C218        C  0.18677594  0.53254153  0.44337603    -0.21600
C219        C  0.29945539  0.43568017  0.36183067    -0.21600
C220        C  0.28184004  0.44771962  0.34351560    -0.21600
C221        C  0.31018860  0.48492886  0.46135639    -0.22700
C222        C  0.32684696  0.47157045  0.44349290    -0.22700
C223        C  0.20101439  0.55383626  0.35609453    -0.22700
C224        C  0.21707867  0.53918358  0.33851305    -0.22700
C225        C  0.25782236  0.50387185  0.46374446    -0.18100
C226        C  0.19309823  0.54381902  0.39961143    -0.18100
C227        C  0.25142829  0.49467707  0.33909239    -0.18000
C228        C  0.31577921  0.45523034  0.40136252    -0.18000
H229        H  0.19860897  0.51757455  0.48004965     0.14900
H230        H  0.16334967  0.53839550  0.44538769     0.14900
H231        H  0.31481064  0.41675428  0.36029952     0.14900
H232        H  0.28039468  0.43944869  0.32521470     0.14900
H233        H  0.31811402  0.49087071  0.47919658     0.13100
H234        H  0.35019588  0.46504406  0.44506061     0.13100
H235        H  0.18383861  0.57089272  0.35303518     0.13100
H236        H  0.21509397  0.54298688  0.31923255     0.13100
H237        H  0.25030633  0.52463112  0.41597556     0.26400
H238        H  0.27480936  0.49640216  0.38605831     0.26400
N239        N  0.21485032  0.22740578  0.42953826    -0.36400
N240        N  0.25847007  0.27491679  0.42640092    -0.56900
N241        N  0.25946847  0.26587367  0.37339619    -0.36400
N242        N  0.21562046  0.22190162  0.37624794    -0.56900
C243        C  0.21384172  0.23971383  0.45182593     0.27200
C244        C  0.18736454  0.21650824  0.42490625     0.27200
C245        C  0.27551429  0.29088653  0.37639450     0.27200
C246        C  0.25251293  0.26393213  0.34959276     0.27200
C247        C  0.26033946  0.26814840  0.45024553     0.35800
C248        C  0.28478749  0.28743504  0.42063781     0.35800
C249        C  0.19581284  0.20080385  0.38226558     0.35800
C250        C  0.22121222  0.21887347  0.35242972     0.35800
C251        C  0.18594674  0.23582264  0.46185745    -0.21600
C252        C  0.16899574  0.22174367  0.44470681    -0.21600
C253        C  0.27907467  0.30509506  0.35427369    -0.21600
C254        C  0.26424281  0.28823686  0.33734036    -0.21600
C255        C  0.28734496  0.27714434  0.45985207    -0.22700
C256        C  0.30305613  0.28906215  0.44101876    -0.22700
C257        C  0.18880612  0.18391686  0.36208377    -0.22700
C258        C  0.20518804  0.19516019  0.34320172    -0.22700
C259        C  0.23762177  0.25423259  0.46337577    -0.18100
C260        C  0.17820650  0.20237752  0.40325565    -0.18100
C261        C  0.23738332  0.23984717  0.33862686    -0.18000
C262        C  0.29289796  0.29658394  0.39710325    -0.18000
H263        H  0.17829014  0.24339164  0.47932942     0.14900
H264        H  0.14565448  0.21635072  0.44672112     0.14900
H265        H  0.29228834  0.32472692  0.35063821     0.14900
H266        H  0.26317902  0.29276554  0.31811549     0.14900
H267        H  0.29522326  0.27456868  0.47830546     0.13100
H268        H  0.32554472  0.29752592  0.44226612     0.13100
H269        H  0.17210568  0.16667065  0.36082889     0.13100
H270        H  0.20394443  0.18798393  0.32458936     0.13100
H271        H  0.23373555  0.22523831  0.41873130     0.26400
H272        H  0.25807954  0.24890783  0.38627667     0.26400
O273        O  0.46714409  0.01965438  0.53316040    -0.71500
O274        O  0.05413758  0.01757765  0.53133112    -0.71800
O275        O  0.51212195  0.02018065  0.50041096    -0.71600
O276        O  0.50838396  0.01933873  0.56899645    -0.71600
O277        O  0.50680934  0.47283467  0.56618447    -0.71600
O278        O  0.50240572  0.47692058  0.49751605    -0.71600
O279        O  0.04920790  0.47715952  0.53380417    -0.71500
O280        O  0.46171114  0.47577001  0.53336611    -0.71700
V281        V  0.51035594  0.01878236  0.53473376     1.35200
V282        V  0.50479605  0.47576864  0.53185141     1.35200
C283        C  0.44684720  0.50035527  0.53266827     0.77700
C284        C  0.06370054  0.50143789  0.53431623     0.77800
C285        C  0.50457168  0.50181814  0.48662971     0.77600
C286        C  0.50413499  0.49647531  0.57854544     0.77600
O287        O  0.44474078  0.23642678  0.53378249    -0.71500
O288        O  0.03186823  0.23146217  0.53589265    -0.71800
O289        O  0.48794921  0.23462992  0.56811069    -0.71600
O290        O  0.48769488  0.23622507  0.49946309    -0.71600
O291        O  0.48525872  0.28495906  0.49998561    -0.71600
O292        O  0.49115847  0.28308913  0.56833922    -0.71600
O293        O  0.03067439  0.27970731  0.53145683    -0.71500
O294        O  0.44484080  0.28485522  0.53615150    -0.71700
V295        V  0.48786537  0.23628333  0.53378631     1.35200
V296        V  0.48819344  0.28294609  0.53417396     1.35200
C297        C  0.42977625  0.26085540  0.53528443     0.77700
C298        C  0.04628571  0.25562251  0.53332331     0.77800
C299        C  0.49001878  0.25866099  0.57995948     0.77600
C300        C  0.48595747  0.26090377  0.48809621     0.77600
O301        O  0.30398857  0.01604031  0.53135846    -0.71500
O302        O  0.21783228  0.01680954  0.53323186    -0.71800
O303        O  0.26267938  0.01730423  0.56654155    -0.71600
O304        O  0.25940242  0.01512440  0.49798324    -0.71600
O305        O  0.25837683  0.47790541  0.50148520    -0.71600
O306        O  0.25327470  0.47403128  0.56991808    -0.71600
O307        O  0.21243587  0.47698674  0.53348168    -0.71500
O308        O  0.29882446  0.47544437  0.53762453    -0.71700
V309        V  0.26095580  0.01542572  0.53230101     1.35200
V310        V  0.25568477  0.47702982  0.53569740     1.35200
C311        C  0.31377405  0.49947167  0.53700297     0.77700
C312        C  0.19740052  0.50144933  0.53483296     0.77800
C313        C  0.25483162  0.49737687  0.58266917     0.77600
C314        C  0.25733781  0.50282232  0.49048605     0.77600
O315        O  0.28229476  0.23153334  0.53586968    -0.71500
O316        O  0.19575681  0.22924442  0.53617283    -0.71800
O317        O  0.23822247  0.23031723  0.50188029    -0.71600
O318        O  0.23972441  0.22968445  0.57045714    -0.71600
O319        O  0.23531242  0.27812986  0.57052875    -0.71600
O320        O  0.23863873  0.27905577  0.50166890    -0.71600
O321        O  0.19397536  0.27773199  0.53453111    -0.71500
O322        O  0.28020576  0.27999252  0.53749360    -0.71700
V323        V  0.23899340  0.23113918  0.53611636     1.35200
V324        V  0.23708015  0.27779594  0.53609357     1.35200
C325        C  0.29626152  0.25619842  0.53671995     0.77700
C326        C  0.17986809  0.25320807  0.53497024     0.77800
C327        C  0.23835692  0.25466474  0.49010502     0.77600
C328        C  0.23737943  0.25370456  0.58232007     0.77600
O329        O  0.03839636  0.01322833  0.99593615    -0.71500
O330        O  0.04138582  0.01377872  0.06460114    -0.71800
O331        O  0.03406298  0.46932616  0.03579768    -0.71600
O332        O  0.03900761  0.05670065  0.02989493    -0.71600
O333        O  0.99061752  0.05660023  0.03200401    -0.71600
O334        O  0.98572558  0.46993982  0.03298715    -0.71600
O335        O  0.99285465  0.01191179  0.06552944    -0.71500
O336        O  0.98979393  0.01539001  0.99687810    -0.71700
V337        V  0.03884038  0.01339865  0.03024632     1.35200
V338        V  0.99224030  0.01354451  0.03117265     1.35200
C339        C  0.01364730  0.01478548  0.98476320     0.77700
C340        C  0.01760580  0.01267502  0.07675241     0.77800
C341        C  0.00997005  0.45459826  0.03448798     0.77600
C342        C  0.01447548  0.07155404  0.03077467     0.77600
O343        O  0.98485142  0.30560180  0.03513721    -0.71500
O344        O  0.98695498  0.21889525  0.03380301    -0.71800
O345        O  0.98704515  0.26119646  0.06878784    -0.71600
O346        O  0.98431438  0.26286407  0.00030551    -0.71600
O347        O  0.03286593  0.26478470  0.99942914    -0.71600
O348        O  0.03566723  0.26018555  0.06809567    -0.71600
O349        O  0.03535923  0.21958552  0.03227225    -0.71500
O350        O  0.03326691  0.30584250  0.03517840    -0.71700
V351        V  0.47102609  0.25434569  0.03309787     1.35200
V352        V  0.03333012  0.26261579  0.03375151     1.35200
C353        C  0.00875922  0.32075674  0.03547076     0.77700
C354        C  0.01163052  0.20433691  0.03267213     0.77800
C355        C  0.01171620  0.26008468  0.08009767     0.77600
C356        C  0.00811261  0.26408950  0.98824102     0.77600
O357        O  0.26609556  0.02346684  0.03018240    -0.71500
O358        O  0.25694563  0.43632443  0.03884273    -0.71800
O359        O  0.26510374  0.97827945  0.99732745    -0.71600
O360        O  0.27022041  0.98188185  0.06592559    -0.71600
O361        O  0.22224146  0.97654027  0.06789261    -0.71600
O362        O  0.21664925  0.98198333  0.99949907    -0.71600
O363        O  0.20862699  0.43763834  0.03576387    -0.71500
O364        O  0.21823379  0.02242612  0.03560664    -0.71700
V365        V  0.26678561  0.98004720  0.03164167     1.35200
V366        V  0.22038818  0.97929716  0.03365538     1.35200
C367        C  0.24160196  0.03798008  0.03308517     0.77700
C368        C  0.23264105  0.42195875  0.03748132     0.77800
C369        C  0.23994839  0.98023666  0.98676818     0.77600
C370        C  0.24704908  0.97933010  0.07871235     0.77600
O371        O  0.26053471  0.18752316  0.03458134    -0.71500
O372        O  0.25646208  0.27370957  0.03910198    -0.71800
O373        O  0.25668177  0.22746645  0.07103274    -0.71600
O374        O  0.25998267  0.23383715  0.00272524    -0.71600
O375        O  0.21189480  0.22754575  0.00080801    -0.71600
O376        O  0.20825433  0.23114563  0.06918828    -0.71600
O377        O  0.20852091  0.27273859  0.03344164    -0.71500
O378        O  0.21224155  0.18589976  0.03643906    -0.71700
V379        V  0.25751529  0.23057780  0.03684085     1.35200
V380        V  0.21108095  0.22932010  0.03501996     1.35200
C381        C  0.23716637  0.17169642  0.03513204     0.77700
C382        C  0.23194430  0.28826246  0.03635582     0.77800
C383        C  0.23190096  0.22962400  0.08181655     0.77600
C384        C  0.23648794  0.23099456  0.99015551     0.77600
N385        N  0.03532888  0.49210859  0.92667144    -0.36400
N386        N  0.99068465  0.04040222  0.92245552    -0.56900
N387        N  0.47653694  0.02974671  0.87321176    -0.36400
N388        N  0.51438479  0.47954334  0.87285398    -0.56900
C389        C  0.02516237  0.49122848  0.94965036     0.27200
C390        C  0.04580194  0.46422675  0.92151130     0.27200
C391        C  0.45217819  0.04679997  0.87792650     0.27200
C392        C  0.47487184  0.02178677  0.84974499     0.27200
C393        C  0.99897327  0.04011382  0.94603976     0.35800
C394        C  0.97864873  0.06795802  0.91797469     0.35800
C395        C  0.53761473  0.46078294  0.87756985     0.35800
C396        C  0.51518344  0.48611695  0.84902462     0.35800
C397        C  0.03014619  0.46294111  0.95951005    -0.21600
C398        C  0.04280761  0.44576230  0.94167089    -0.21600
C399        C  0.43473498  0.05005934  0.85728535    -0.21600
C400        C  0.44885751  0.03379326  0.83947376    -0.21600
C401        C  0.99140746  0.06711036  0.95676894    -0.22700
C402        C  0.97897071  0.08495374  0.93891809    -0.22700
C403        C  0.55347815  0.45532616  0.85657995    -0.22700
C404        C  0.53957574  0.47186640  0.83852417    -0.22700
C405        C  0.01277525  0.01548420  0.95806486    -0.18100
C406        C  0.53956647  0.44293569  0.89860474    -0.18100
C407        C  0.49763511  0.00624723  0.83714219    -0.18000
C408        C  0.44956592  0.06474114  0.89849566    -0.18000
H409        H  0.02435010  0.45521127  0.97743137     0.14900
H410        H  0.04874793  0.42221367  0.94338794     0.14900
H411        H  0.41466307  0.06378058  0.85513429     0.14900
H412        H  0.44147814  0.03205816  0.82087781     0.14900
H413        H  0.99519119  0.07353428  0.97534462     0.13100
H414        H  0.97119707  0.10786264  0.94120864     0.13100
H415        H  0.57208170  0.43974644  0.85434714     0.13100
H416        H  0.54563671  0.47193297  0.81963424     0.13100
H417        H  0.03631129  0.51104254  0.91560422     0.26400
H418        H  0.49542184  0.02831061  0.88432367     0.26400
N419        N  0.98291079  0.24229739  0.92643959    -0.36400
N420        N  0.02640514  0.29032786  0.92602499    -0.56900
N421        N  0.51637161  0.27778883  0.87308862    -0.36400
N422        N  0.47724986  0.22929381  0.87340914    -0.56900
C423        C  0.99472147  0.24079237  0.94900336     0.27200
C424        C  0.97446564  0.21423630  0.92052596     0.27200
C425        C  0.53891790  0.29665576  0.87756002     0.27200
C426        C  0.51836262  0.26944517  0.84968656     0.27200
C427        C  0.01907189  0.28998183  0.94964475     0.35800
C428        C  0.03801582  0.31758802  0.92167700     0.35800
C429        C  0.45553568  0.20977550  0.87833148     0.35800
C430        C  0.47518303  0.23581378  0.84964116     0.35800
C431        C  0.99291025  0.21180316  0.95794314    -0.21600
C432        C  0.98061905  0.19486994  0.93978416    -0.21600
C433        C  0.55571575  0.30041704  0.85685928    -0.21600
C434        C  0.54300643  0.28280543  0.83929611    -0.21600
C435        C  0.02672762  0.31670458  0.96051352    -0.22700
C436        C  0.03853159  0.33437460  0.94269305    -0.22700
C437        C  0.43926025  0.20380506  0.85753872    -0.22700
C438        C  0.45144433  0.22076136  0.83934233    -0.22700
C439        C  0.00691742  0.26514602  0.96161106    -0.18100
C440        C  0.45577750  0.19196394  0.89930798    -0.18100
C441        C  0.49665621  0.25263377  0.83714465    -0.18000
C442        C  0.54015945  0.31518655  0.89799770    -0.18000
H443        H  0.00052493  0.20355825  0.97541389     0.14900
H444        H  0.97660565  0.17101985  0.94075228     0.14900
H445        H  0.57429400  0.31538176  0.85444124     0.14900
H446        H  0.55023728  0.28117775  0.82073034     0.14900
H447        H  0.02374183  0.32294582  0.97921618     0.13100
H448        H  0.04642583  0.35699423  0.94499583     0.13100
H449        H  0.42155157  0.18772106  0.85552238     0.13100
H450        H  0.44459500  0.22079619  0.82055152     0.13100
H451        H  0.97926283  0.26182581  0.91640422     0.26400
H452        H  0.49791007  0.27542124  0.88424964     0.26400
N453        N  0.25780503  0.45858294  0.93019281    -0.36400
N454        N  0.21520341  0.00547116  0.92489325    -0.56900
N455        N  0.22301266  0.01115274  0.87203190    -0.36400
N456        N  0.26280441  0.46058617  0.87741924    -0.56900
C457        C  0.24576550  0.45687158  0.95247892     0.27200
C458        C  0.27020362  0.43136367  0.92556834     0.27200
C459        C  0.19761356  0.02666271  0.87656374     0.27200
C460        C  0.22355299  0.00570767  0.84804327     0.27200
C461        C  0.22340125  0.00519292  0.94845905     0.35800
C462        C  0.20273432  0.03279461  0.92061447     0.35800
C463        C  0.28501442  0.44104460  0.88309708     0.35800
C464        C  0.26520394  0.46689953  0.85367494     0.35800
C465        C  0.25132937  0.42879619  0.96250578    -0.21600
C466        C  0.26636927  0.41249549  0.94538737    -0.21600
C467        C  0.18178874  0.03151110  0.85523820    -0.21600
C468        C  0.19799160  0.01783551  0.83717941    -0.21600
C469        C  0.21504405  0.03184914  0.95941555    -0.22700
C470        C  0.20212627  0.04950765  0.94167204    -0.22700
C471        C  0.30198892  0.43491975  0.86280417    -0.22700
C472        C  0.28964448  0.45165210  0.84415615    -0.22700
C473        C  0.23790061  0.98079596  0.96011225    -0.18100
C474        C  0.28452489  0.42285309  0.90389431    -0.18100
C475        C  0.24749392  0.99147801  0.83587392    -0.18000
C476        C  0.19333974  0.04330926  0.89765587    -0.18000
H477        H  0.24455637  0.42068633  0.98008306     0.14900
H478        H  0.27354158  0.38931452  0.94742362     0.14900
H479        H  0.16153146  0.04490431  0.85287249     0.14900
H480        H  0.19223655  0.01786063  0.81815283     0.14900
H481        H  0.21857592  0.03819882  0.97804543     0.13100
H482        H  0.19370485  0.07220420  0.94395983     0.13100
H483        H  0.32008961  0.41860098  0.86133048     0.13100
H484        H  0.29674482  0.45121630  0.82551443     0.13100
H485        H  0.25900284  0.47784198  0.91951314     0.26400
H486        H  0.24104616  0.00917975  0.88400322     0.26400
N487        N  0.21944154  0.20809757  0.92666149    -0.36400
N488        N  0.26108978  0.25754939  0.92979043    -0.56900
N489        N  0.26201022  0.25957997  0.87698865    -0.36400
N490        N  0.22355503  0.21021790  0.87362136    -0.56900
C491        C  0.22742355  0.20738713  0.95029967     0.27200
C492        C  0.21120744  0.18004859  0.92073646     0.27200
C493        C  0.28392715  0.27857553  0.88299740     0.27200
C494        C  0.26481055  0.25369762  0.85318035     0.27200
C495        C  0.25017306  0.25726800  0.95246140     0.35800
C496        C  0.27134404  0.28549108  0.92607708     0.35800
C497        C  0.20407315  0.18780813  0.87634614     0.35800
C498        C  0.22424545  0.21683597  0.84979491     0.35800
C499        C  0.22340048  0.17891793  0.95974548    -0.21600
C500        C  0.21342675  0.16154183  0.94102700    -0.21600
C501        C  0.30104501  0.28482748  0.86287054    -0.21600
C502        C  0.28910341  0.26890406  0.84402936    -0.21600
C503        C  0.25413822  0.28473630  0.96344494    -0.22700
C504        C  0.26720653  0.30283684  0.94656025    -0.22700
C505        C  0.19219124  0.17999343  0.85408725    -0.22700
C506        C  0.20464678  0.19873458  0.83726269    -0.22700
C507        C  0.23773468  0.23203102  0.96357053    -0.18100
C508        C  0.20167470  0.17057338  0.89761054    -0.18100
C509        C  0.24458943  0.23688526  0.83921858    -0.18000
C510        C  0.28424067  0.29545872  0.90433934    -0.18000
H511        H  0.22786439  0.17130022  0.97805410     0.14900
H512        H  0.20852937  0.13788412  0.94225608     0.14900
H513        H  0.31919547  0.30053301  0.86168420     0.14900
H514        H  0.29669683  0.26942717  0.82551619     0.14900
H515        H  0.24767529  0.29121491  0.98150598     0.13100
H516        H  0.27288837  0.32610656  0.94910608     0.13100
H517        H  0.17712804  0.16181738  0.85030441     0.13100
H518        H  0.20076740  0.19804602  0.81796049     0.13100
H519        H  0.21782204  0.22715212  0.91569884     0.26400
H520        H  0.24334444  0.25546792  0.88754629     0.26400
N521        N  0.02909703  0.52325205  0.64370330    -0.36400
N522        N  0.02935556  0.52712234  0.69680852    -0.56900
N523        N  0.47551467  0.47757683  0.69496871    -0.36400
N524        N  0.47885667  0.47522025  0.64120621    -0.56900
C525        C  0.04993579  0.54403175  0.64803934     0.27200
C526        C  0.02274803  0.52381819  0.61972868     0.27200
C527        C  0.47326946  0.48873986  0.71766978     0.27200
C528        C  0.44830274  0.46722660  0.68879273     0.27200
C529        C  0.05801580  0.53364168  0.69170924     0.35800
C530        C  0.02940424  0.51753325  0.72004093     0.35800
C531        C  0.48542366  0.47408763  0.61741174     0.35800
C532        C  0.45819985  0.45434299  0.64553519     0.35800
C533        C  0.05683003  0.55864023  0.62670092    -0.21600
C534        C  0.03971435  0.54597811  0.60882390    -0.21600
C535        C  0.44459031  0.48487444  0.72620675    -0.21600
C536        C  0.42876687  0.47146520  0.70799602    -0.21600
C537        C  0.07611695  0.52834035  0.71188597    -0.22700
C538        C  0.05784697  0.51842414  0.72991601    -0.22700
C539        C  0.46869785  0.45191986  0.60647801    -0.22700
C540        C  0.45147050  0.43946167  0.62431078    -0.22700
C541        C  0.06797051  0.54409181  0.66901560    -0.18100
C542        C  0.50335072  0.49552728  0.60547062    -0.18100
C543        C  0.44042676  0.45390716  0.66645472    -0.18000
C544        C  0.49703817  0.50095658  0.73117779    -0.18000
H545        H  0.07418432  0.57496106  0.62401482     0.14900
H546        H  0.04156924  0.55134846  0.58985140     0.14900
H547        H  0.43761929  0.00583522  0.74370295     0.14900
H548        H  0.40541010  0.46559549  0.70890495     0.14900
H549        H  0.10005607  0.53083013  0.71354031     0.13100
H550        H  0.07717658  0.01848180  0.74259828     0.13100
H551        H  0.46747430  0.44624546  0.58755838     0.13100
H552        H  0.43448609  0.42273237  0.62169206     0.13100
H553        H  0.02435174  0.50613684  0.65583966     0.26400
H554        H  0.49499890  0.47508326  0.68492718     0.26400
N555        N  0.01610939  0.24256471  0.64518283    -0.36400
N556        N  0.01828611  0.24595671  0.69842204    -0.56900
N557        N  0.46910434  0.27725472  0.69701546    -0.36400
N558        N  0.46823680  0.27810522  0.64344996    -0.56900
C559        C  0.03469981  0.21975734  0.65151075     0.27200
C560        C  0.00793328  0.23864738  0.62177986     0.27200
C561        C  0.46984119  0.26590538  0.71976582     0.27200
C562        C  0.44023487  0.28391700  0.69176853     0.27200
C563        C  0.04570235  0.23455845  0.69370854     0.35800
C564        C  0.01972350  0.25714406  0.72102360     0.35800
C565        C  0.47258505  0.27929464  0.61937011     0.35800
C566        C  0.44640850  0.29804378  0.64853700     0.35800
C567        C  0.03859114  0.20077500  0.63206949    -0.21600
C568        C  0.02167895  0.21259688  0.61328309    -0.21600
C569        C  0.44134825  0.26581083  0.72930951    -0.21600
C570        C  0.42252926  0.27693723  0.71153679    -0.21600
C571        C  0.06457144  0.23832711  0.71349867    -0.22700
C572        C  0.04791007  0.25243237  0.73094858    -0.22700
C573        C  0.45326722  0.30054767  0.60901233    -0.22700
C574        C  0.43682600  0.31252032  0.62754280    -0.22700
C575        C  0.05355034  0.22028957  0.67192078    -0.18100
C576        C  0.49088599  0.25851650  0.60680178    -0.18100
C577        C  0.42954780  0.29655994  0.66978567    -0.18000
C578        C  0.49600691  0.25678289  0.73221888    -0.18000
H579        H  0.05362873  0.18152782  0.63110876     0.14900
H580        H  0.02111359  0.20344120  0.59529581     0.14900
H581        H  0.43483827  0.25824302  0.74710270     0.14900
H582        H  0.39852029  0.27955979  0.71311420     0.14900
H583        H  0.08782575  0.23149026  0.71532343     0.13100
H584        H  0.05560294  0.25856350  0.74880453     0.13100
H585        H  0.44962066  0.30565314  0.59010032     0.13100
H586        H  0.41811464  0.32812182  0.62556411     0.13100
H587        H  0.01416132  0.26227013  0.65505629     0.26400
H588        H  0.48751182  0.28228635  0.68635098     0.26400
N589        N  0.23078453  0.51260157  0.64696619    -0.36400
N590        N  0.27657298  0.47071127  0.64552143    -0.56900
N591        N  0.27647788  0.46522222  0.69953054    -0.36400
N592        N  0.22923215  0.50945030  0.70067173    -0.56900
C593        C  0.23914932  0.51688993  0.62370094     0.27200
C594        C  0.21340785  0.53607758  0.65333841     0.27200
C595        C  0.30469478  0.45693930  0.69382599     0.27200
C596        C  0.27684682  0.98188343  0.71996783     0.27200
C597        C  0.27118289  0.47150555  0.62144907     0.35800
C598        C  0.29611508  0.44809513  0.64994010     0.35800
C599        C  0.20178542  0.52063312  0.69523142     0.35800
C600        C  0.22914050  0.00950542  0.71787368     0.35800
C601        C  0.22680846  0.54392491  0.61537008    -0.21600
C602        C  0.21046564  0.55588754  0.63408380    -0.21600
C603        C  0.32297316  0.96575491  0.71352580    -0.21600
C604        C  0.30441267  0.97726814  0.73095842    -0.21600
C605        C  0.28759719  0.44876787  0.61040034    -0.22700
C606        C  0.30335697  0.43402893  0.62845943    -0.22700
C607        C  0.18660420  0.03194993  0.70775842    -0.22700
C608        C  0.20129013  0.01770564  0.72654057    -0.22700
C609        C  0.25491280  0.49519174  0.60973477    -0.18100
C610        C  0.19437765  0.53559837  0.67338613    -0.18100
C611        C  0.25167698  0.99457707  0.73128077    -0.18000
C612        C  0.31414888  0.44682225  0.67085746    -0.18000
H613        H  0.22794669  0.55378309  0.59755623     0.14900
H614        H  0.19642060  0.57590461  0.63319801     0.14900
H615        H  0.34647915  0.96030452  0.71604010     0.14900
H616        H  0.31072285  0.98267617  0.74931748     0.14900
H617        H  0.28997876  0.44423851  0.59137226     0.13100
H618        H  0.32021335  0.41662634  0.62590154     0.13100
H619        H  0.16396710  0.04081023  0.70832569     0.13100
H620        H  0.19237165  0.01337275  0.74433000     0.13100
H621        H  0.23159973  0.49252045  0.65666623     0.26400
H622        H  0.25770659  0.46374198  0.68832253     0.26400
N623        N  0.21580571  0.23220270  0.64638291    -0.36400
N624        N  0.26333067  0.27120929  0.64534572    -0.56900
N625        N  0.26784459  0.26793476  0.69887069    -0.36400
N626        N  0.21880426  0.22716261  0.69990296    -0.56900
C627        C  0.22174067  0.23108496  0.62238143     0.27200
C628        C  0.19744643  0.20953110  0.65177349     0.27200
C629        C  0.29548749  0.27660587  0.69265662     0.27200
C630        C  0.26971576  0.25703900  0.72173071     0.27200
C631        C  0.25579473  0.27414648  0.62176933     0.35800
C632        C  0.28411989  0.29176618  0.65010964     0.35800
C633        C  0.19026168  0.21966382  0.69530363     0.35800
C634        C  0.21946262  0.23644916  0.72308512     0.35800
C635        C  0.20670321  0.20697503  0.61247175    -0.21600
C636        C  0.19133525  0.19351580  0.63102134    -0.21600
C637        C  0.31506666  0.27147496  0.71199227    -0.21600
C638        C  0.29858523  0.25957821  0.73051370    -0.21600
C639        C  0.27197275  0.29724390  0.61147100    -0.22700
C640        C  0.28981491  0.30843392  0.62948783    -0.22700
C641        C  0.17285672  0.22409136  0.71573488    -0.22700
C642        C  0.19163698  0.23410101  0.73354647    -0.22700
C643        C  0.23780377  0.25328169  0.60936189    -0.18100
C644        C  0.18003256  0.20871681  0.67288732    -0.18100
C645        C  0.24540406  0.24609811  0.73486688    -0.18000
C646        C  0.30322287  0.28989831  0.67033085    -0.18000
H647        H  0.20523660  0.20045982  0.59375631     0.14900
H648        H  0.17568916  0.17537575  0.62918796     0.14900
H649        H  0.33874101  0.27604742  0.71287277     0.14900
H650        H  0.30694517  0.25316522  0.74824470     0.14900
H651        H  0.27262661  0.30438152  0.59281223     0.13100
H652        H  0.30679677  0.32524154  0.62724536     0.13100
H653        H  0.14910116  0.22075076  0.71771469     0.13100
H654        H  0.18538483  0.23992361  0.75179711     0.13100
H655        H  0.21898224  0.25037496  0.65776236     0.26400
H656        H  0.24833321  0.27141837  0.68875551     0.26400
C657        C  0.38314489  0.27742885  0.65336526    -0.26100
C658        C  0.39704056  0.29985367  0.66672996    -0.14100
C659        C  0.37980841  0.32163918  0.67898729     0.36500
C660        C  0.34865213  0.31939209  0.67855918    -0.25500
C661        C  0.33497141  0.29584451  0.66626832    -0.14800
C662        C  0.35239487  0.27508748  0.65304923     0.37600
N663        N  0.33969594  0.25016515  0.64059379    -0.89000
H664        H  0.39649639  0.26049352  0.64420905     0.18700
H665        H  0.33511303  0.33477158  0.68908427     0.18700
N666        N  0.39319026  0.34523276  0.69268348    -0.88000
H667        H  0.32589358  0.25824691  0.62656110     0.36100
H668        H  0.32695445  0.23776443  0.65265259     0.41100
H669        H  0.41642218  0.34511417  0.69101773     0.40800
H670        H  0.38842451  0.34147183  0.71091451     0.35700
C671        C  0.09852523  0.18836650  0.68077244    -0.26100
C672        C  0.08524493  0.21258975  0.66818860    -0.14100
C673        C  0.10310770  0.23258428  0.65499949     0.36500
C674        C  0.13381501  0.22871733  0.65538762    -0.25500
C675        C  0.14749482  0.20594004  0.66930809    -0.14800
C676        C  0.12971511  0.18509642  0.68191070     0.37600
N677        N  0.14242120  0.16160852  0.69684899    -0.89000
H678        H  0.08469709  0.17331074  0.69112321     0.18700
H679        H  0.14730076  0.24515416  0.64613106     0.18700
N680        N  0.09089058  0.25837047  0.64253431    -0.88000
H681        H  0.13619667  0.16577792  0.71470374     0.36100
H682        H  0.16575721  0.16161009  0.69641741     0.41100
H683        H  0.07853015  0.27136088  0.65467132     0.40800
H684        H  0.07682644  0.25125856  0.62863355     0.35700
C685        C  0.36193095  0.97586979  0.65662033    -0.26100
C686        C  0.34651837  0.44449034  0.66657964    -0.14100
C687        C  0.36450784  0.42058590  0.67544238     0.36500
C688        C  0.39565234  0.42228131  0.67355437    -0.25500
C689        C  0.40852992  0.44758258  0.66287692    -0.14800
C690        C  0.39270635  0.97849443  0.65543511     0.37600
N691        N  0.40543159  0.00511594  0.64543996    -0.93800
H692        H  0.34774227  0.99409737  0.64986025     0.18700
H693        H  0.40983000  0.40492042  0.68159519     0.18700
N694        N  0.35160061  0.39496049  0.68670564    -0.88000
H695        H  0.39734636  0.02354281  0.65515548     0.36100
H696        H  0.39796138  0.00739103  0.62756711     0.41100
H697        H  0.33641839  0.38579997  0.67444964     0.40800
H698        H  0.33975249  0.40181093  0.70192811     0.35700
C699        C  0.12106120  0.07500780  0.66715613    -0.26100
C700        C  0.10049775  0.54737396  0.66567599    -0.14100
C701        C  0.11610054  0.52537365  0.65237815     0.36500
C702        C  0.14710985  0.52403728  0.65353253    -0.25500
C703        C  0.16280068  0.54332852  0.66865378    -0.14800
C704        C  0.15237407  0.07503936  0.66808655     0.37600
N705        N  0.16796620  0.09926946  0.67892518    -0.89000
H706        H  0.10834687  0.09318984  0.67526277     0.18700
H707        H  0.15887547  0.50616447  0.64414451     0.18700
N708        N  0.10040043  0.50282778  0.63925151    -0.88000
H709        H  0.16015590  0.10182697  0.69657322     0.36100
H710        H  0.16261224  0.11865042  0.66901265     0.41100
H711        H  0.10662913  0.48181726  0.64635554     0.40800
H712        H  0.10723258  0.50370231  0.62124270     0.35700
C713        C  0.25532278  0.21525565  0.79857945    -0.26100
C714        C  0.24565729  0.23977857  0.81241358    -0.14100
C715        C  0.23745906  0.26702555  0.80076009     0.36500
C716        C  0.23841216  0.26893046  0.77540546    -0.25500
C717        C  0.24713685  0.24407046  0.76161489    -0.14800
C718        C  0.25597574  0.21710979  0.77335896     0.37600
N719        N  0.26563800  0.19132909  0.76003283    -0.89000
H720        H  0.26211782  0.19447495  0.80747701     0.18700
H721        H  0.23172676  0.28960276  0.76630078     0.18700
N722        N  0.22817002  0.29253734  0.81476202    -0.88000
H723        H  0.28404170  0.19729073  0.74959870     0.36100
H724        H  0.24831861  0.18516873  0.74839075     0.41100
H725        H  0.20829102  0.28704166  0.82344609     0.40800
H726        H  0.22321169  0.31090730  0.80349096     0.35700
C727        C  0.26688809  0.34379970  0.88855426    -0.26100
C728        C  0.28913154  0.32783506  0.90133605    -0.14100
C729        C  0.31300121  0.34304866  0.91232846     0.36500
C730        C  0.31284822  0.37463155  0.91161837    -0.25500
C731        C  0.28924441  0.39044013  0.90013133    -0.14800
C732        C  0.26667900  0.37486206  0.88792588     0.37600
N733        N  0.24243586  0.39070078  0.87611552    -0.89000
H734        H  0.24859159  0.33203157  0.88005915     0.18700
H735        H  0.33007088  0.38690756  0.92099827     0.18700
N736        N  0.33685106  0.32652276  0.92419067    -0.88000
H737        H  0.22241028  0.38406177  0.88401102     0.36100
H738        H  0.24206146  0.38432304  0.85797177     0.41100
H739        H  0.32797605  0.31545543  0.93913056     0.40800
H740        H  0.35283055  0.34121754  0.93092964     0.35700
C741        C  0.21795204  0.08941785  0.88649144    -0.26100
C742        C  0.19149881  0.07600736  0.89412494    -0.14100
C743        C  0.16658055  0.09398203  0.90080004     0.36500
C744        C  0.16955287  0.12527180  0.90099181    -0.25500
C745        C  0.19669782  0.13830705  0.89443292    -0.14800
C746        C  0.22079634  0.12031315  0.88674319     0.37600
N747        N  0.24873369  0.13344323  0.88033652    -0.89000
H748        H  0.23716824  0.07564954  0.88154197     0.18700
H749        H  0.15108933  0.13936922  0.90694951     0.18700
N750        N  0.13870005  0.08131701  0.90815690    -0.88000
H751        H  0.25378504  0.12711539  0.86266355     0.36100
H752        H  0.26538188  0.12451073  0.89180033     0.41100
H753        H  0.13936299  0.05795740  0.90697626     0.40800
H754        H  0.12226120  0.08877259  0.89586360     0.35700
C755        C  0.23864157  0.45797846  0.80036756    -0.26100
C756        C  0.24843706  0.99290395  0.80901597    -0.14100
C757        C  0.25472864  0.01975722  0.79652182     0.36500
C758        C  0.25510640  0.01977479  0.77110797    -0.25500
C759        C  0.24977933  0.99347022  0.75805822    -0.14800
C760        C  0.24094069  0.45716893  0.77510812     0.37600
N761        N  0.23290190  0.43000128  0.76298269    -0.89000
H762        H  0.23114721  0.43824599  0.80997735     0.18700
H763        H  0.26007472  0.04024788  0.76136933     0.18700
N764        N  0.26184024  0.04649779  0.80962302    -0.88000
H765        H  0.21008359  0.42672830  0.76583512     0.36100
H766        H  0.23575590  0.43163242  0.74433892     0.41100
H767        H  0.24257120  0.05375851  0.81859298     0.40800
H768        H  0.26733272  0.06378934  0.79769989     0.35700
C769        C  0.49226653  0.28056655  0.79809394    -0.26100
C770        C  0.49646827  0.25303600  0.81018400    -0.14100
C771        C  0.00019341  0.24436456  0.79858975     0.36500
C772        C  0.99949860  0.24418026  0.77324214    -0.25500
C773        C  0.49618280  0.25593923  0.75914868    -0.14800
C774        C  0.49234711  0.28234051  0.77288037     0.37600
N775        N  0.48945767  0.31137216  0.76174999    -0.89000
H776        H  0.48913555  0.30094321  0.80841595     0.18700
H777        H  0.00301964  0.22325291  0.76374821     0.18700
N778        N  0.00663038  0.21718021  0.81190117    -0.88000
H779        H  0.46997398  0.31225099  0.75124470     0.36100
H780        H  0.50784950  0.31455416  0.75051461     0.41100
H781        H  0.02682820  0.22009846  0.82123001     0.40800
H782        H  0.01003062  0.19921352  0.80018221     0.35700
C783        C  0.08023401  0.37241752  0.90487667    -0.26100
C784        C  0.54530094  0.34752438  0.89380753    -0.14100
C785        C  0.52397779  0.36425223  0.88030772     0.36500
C786        C  0.52436098  0.39539735  0.88091189    -0.25500
C787        C  0.54552405  0.41046340  0.89491220    -0.14800
C788        C  0.08342255  0.40374511  0.90494577     0.37600
N789        N  0.10992856  0.41612808  0.91549593    -0.89000
H790        H  0.09748558  0.35815632  0.91298719     0.18700
H791        H  0.50667388  0.40791827  0.87159983     0.18700
N792        N  0.50061211  0.34965447  0.86723365    -0.88000
H793        H  0.10986964  0.41096099  0.93395166     0.36100
H794        H  0.10979865  0.43948604  0.91395119     0.41100
H795        H  0.50183324  0.35628322  0.84911010     0.40800
H796        H  0.48002965  0.35710947  0.87398408     0.35700
C797        C  0.42459229  0.14610992  0.90324053    -0.26100
C798        C  0.45115238  0.15963579  0.89582489    -0.14100
C799        C  0.98195367  0.15828859  0.88111526     0.36500
C800        C  0.98275977  0.12718508  0.88057009    -0.25500
C801        C  0.44626456  0.09724100  0.89417565    -0.14800
C802        C  0.42190242  0.11478574  0.90263390     0.37600
N803        N  0.39482962  0.10159487  0.91121794    -0.89000
H804        H  0.40647020  0.15981245  0.91032220     0.18700
H805        H  0.00180145  0.11594541  0.87235282     0.18700
N806        N  0.00619077  0.17399148  0.87024847    -0.88000
H807        H  0.39330889  0.10601157  0.92970008     0.36100
H808        H  0.39545254  0.07830795  0.90931911     0.41100
H809        H  0.01646802  0.18723540  0.88335112     0.40800
H810        H  0.99762349  0.18785013  0.85653058     0.35700
C811        C  0.48935143  0.47537632  0.77106241    -0.26100
C812        C  0.49507169  0.50198935  0.75823912    -0.14100
C813        C  0.01848934  0.03940589  0.76729041     0.36500
C814        C  0.01788910  0.04077993  0.79259005    -0.25500
C815        C  0.49158678  0.50171757  0.80947942    -0.14800
C816        C  0.48684990  0.47509284  0.79629359     0.37600
N817        N  0.47828410  0.44775288  0.80791703    -0.89000
H818        H  0.48640358  0.45462622  0.76130545     0.18700
H819        H  0.02063048  0.06224213  0.80134627     0.18700
N820        N  0.01991159  0.06705989  0.75401842    -0.88000
H821        H  0.49522567  0.44050872  0.81973162     0.36100
H822        H  0.45894380  0.45206974  0.81791905     0.41100
H823        H  0.00179463  0.06827354  0.74198171     0.40800
H824        H  0.03974097  0.06758683  0.74423216     0.35700
C825        C  0.25627896  0.33819216  0.04532642    -0.26100
C826        C  0.23118884  0.32256870  0.03667698    -0.14100
C827        C  0.20617076  0.34019398  0.02862037     0.36500
C828        C  0.20703110  0.37217132  0.02927808    -0.25500
C829        C  0.23232450  0.38769451  0.03767612    -0.14800
C830        C  0.25698325  0.37001050  0.04608056     0.37600
N831        N  0.28274535  0.38417535  0.05607858    -0.89000
H832        H  0.27563296  0.32558938  0.05194812     0.18700
H833        H  0.18781685  0.38509007  0.02280175     0.18700
N834        N  0.17991354  0.32573561  0.01956829    -0.88000
H835        H  0.30145350  0.37729443  0.04620152     0.36100
H836        H  0.28561524  0.37652563  0.07386550     0.41100
H837        H  0.18579896  0.31493745  0.00353773     0.40800
H838        H  0.16329873  0.34161069  0.01499021     0.35700
C839        C  0.21333021  0.12049941  0.03947412    -0.26100
C840        C  0.23887753  0.13744522  0.03427916    -0.14100
C841        C  0.26551811  0.12116275  0.02842484     0.36500
C842        C  0.26589986  0.08916453  0.02829177    -0.25500
C843        C  0.24028334  0.07226808  0.03355170    -0.14800
C844        C  0.21376865  0.08864144  0.03923484     0.37600
N845        N  0.18699472  0.07309708  0.04512218    -0.89000
H846        H  0.19263830  0.13205655  0.04404137     0.18700
H847        H  0.28645959  0.07733978  0.02378578     0.18700
N848        N  0.29221769  0.13702131  0.02239826    -0.88000
H849        H  0.17019568  0.08006218  0.03297405     0.36100
H850        H  0.18049426  0.07948566  0.06246821     0.41100
H851        H  0.28811254  0.14840282  0.00609786     0.40800
H852        H  0.30996032  0.12200183  0.01921563     0.35700
C853        C  0.98307433  0.40471045  0.03845832    -0.26100
C854        C  0.00998007  0.42028320  0.03493197    -0.14100
C855        C  0.03639626  0.40258505  0.03215105     0.36500
C856        C  0.03537818  0.37073861  0.03258017    -0.25500
C857        C  0.00847526  0.35509225  0.03588672    -0.14800
C858        C  0.98203399  0.37274725  0.03926171     0.37600
N859        N  0.43921981  0.34985561  0.04115728    -0.89000
H860        H  0.44832866  0.40886732  0.04004410     0.18700
H861        H  0.05605695  0.35815065  0.03006922     0.18700
N862        N  0.06454356  0.41673538  0.02852195    -0.88000
H863        H  0.42192810  0.36581943  0.04246829     0.36100
H864        H  0.44029133  0.33868089  0.05782281     0.41100
H865        H  0.07324243  0.40932043  0.01208630     0.40800
H866        H  0.07916862  0.40958796  0.04231244     0.35700
C867        C  0.03894159  0.12168719  0.03787776    -0.26100
C868        C  0.01365406  0.10557332  0.03052514    -0.14100
C869        C  0.98794275  0.12240824  0.02309582     0.36500
C870        C  0.98762227  0.15421178  0.02406961    -0.25500
C871        C  0.01277408  0.17031978  0.03182699    -0.14800
C872        C  0.03876683  0.15347696  0.03854465     0.37600
N873        N  0.06507002  0.16847380  0.04658397    -0.89000
H874        H  0.05902294  0.10953166  0.04353658     0.18700
H875        H  0.44802866  0.15849017  0.03955852     0.18700
N876        N  0.43983845  0.09994027  0.03975894    -0.88000
H877        H  0.08272452  0.16219535  0.03530356     0.36100
H878        H  0.07023133  0.16091968  0.06407330     0.41100
H879        H  0.42534259  0.10751966  0.02601783     0.40800
H880        H  0.43094526  0.10675367  0.05628826     0.35700
C881        C  0.38056555  0.23300410  0.53581502    -0.26100
C882        C  0.39552244  0.26065279  0.53592893    -0.14100
C883        C  0.37723673  0.28700851  0.53650951     0.36500
C884        C  0.34540351  0.28513721  0.53684111    -0.25500
C885        C  0.33050850  0.25735972  0.53663778    -0.14800
C886        C  0.34888113  0.23111426  0.53615336     0.37600
N887        N  0.33559794  0.20212583  0.53597654    -0.89000
H888        H  0.39358737  0.21229915  0.53542946     0.18700
H889        H  0.33226777  0.30577793  0.53718882     0.18700
N890        N  0.39072116  0.31590859  0.53667878    -0.88000
H891        H  0.34358445  0.19011759  0.55105386     0.36100
H892        H  0.34278774  0.19091067  0.52048688     0.41100
H893        H  0.38361627  0.32716421  0.55217664     0.40800
H894        H  0.38275796  0.32798005  0.52162239     0.35700
C895        C  0.09674900  0.22794630  0.53452623    -0.26100
C896        C  0.08055270  0.25540103  0.53276228    -0.14100
C897        C  0.09758641  0.28195691  0.53090884     0.36500
C898        C  0.12943173  0.28044990  0.53179476    -0.25500
C899        C  0.14562713  0.25306388  0.53404935    -0.14800
C900        C  0.12863459  0.22642011  0.53515065     0.37600
N901        N  0.14361554  0.19769536  0.53690785    -0.89000
H902        H  0.08441464  0.20729046  0.53567773     0.18700
H903        H  0.14174644  0.30111159  0.53056158     0.18700
N904        N  0.08266927  0.31061445  0.52820919    -0.88000
H905        H  0.12816824  0.18036037  0.53635136     0.36100
H906        H  0.15391812  0.19637788  0.55391381     0.41100
H907        H  0.07230171  0.31102422  0.51121173     0.40800
H908        H  0.09815702  0.32793664  0.52807292     0.35700
C909        C  0.39717752  0.47351900  0.53388641    -0.26100
C910        C  0.41272104  0.50081224  0.53369167    -0.14100
C911        C  0.40024244  0.02134418  0.53074149     0.36500
C912        C  0.36846103  0.01952590  0.53043653    -0.25500
C913        C  0.34792459  0.49922600  0.53601947    -0.14800
C914        C  0.36542014  0.47236754  0.53470798     0.37600
N915        N  0.35104945  0.44379029  0.53394504    -0.89000
H916        H  0.40991466  0.45267059  0.53305046     0.18700
H917        H  0.35529811  0.03973946  0.52695575     0.18700
N918        N  0.41401523  0.04978143  0.52648969    -0.88000
H919        H  0.36692125  0.42628041  0.53397187     0.36100
H920        H  0.33967336  0.44260138  0.51741194     0.41100
H921        H  0.42405113  0.05628575  0.54271047     0.40800
H922        H  0.39786113  0.06630162  0.52235471     0.35700
C923        C  0.11952736  0.01937638  0.53465819    -0.26100
C924        C  0.09799301  0.50130808  0.53385424    -0.14100
C925        C  0.11541953  0.47434689  0.53493455     0.36500
C926        C  0.14722054  0.47496999  0.53499628    -0.25500
C927        C  0.16313840  0.50199411  0.53384511    -0.14800
C928        C  0.15136417  0.01990501  0.53516033     0.37600
N929        N  0.16587867  0.04767891  0.53984054    -0.89000
H930        H  0.10720152  0.04007220  0.53791765     0.18700
H931        H  0.15954457  0.45386686  0.53617295     0.18700
N932        N  0.10103614  0.44592872  0.53611790    -0.88000
H933        H  0.15866344  0.05554716  0.55660089     0.36100
H934        H  0.15892661  0.06319902  0.52661353     0.41100
H935        H  0.10832241  0.43486660  0.55185758     0.40800
H936        H  0.10801731  0.43321718  0.52132076     0.35700
C937        C  0.37108853  0.32723237  0.40160124    -0.26100
C938        C  0.38735013  0.30165488  0.39436622    -0.14100
C939        C  0.37230772  0.27656551  0.38519828     0.36500
C940        C  0.34123795  0.27714609  0.38411391    -0.25500
C941        C  0.32486552  0.30170122  0.39286452    -0.14800
C942        C  0.33967182  0.32731189  0.40105269     0.37600
N943        N  0.32287449  0.35259460  0.40974039    -0.89000
H944        H  0.38269705  0.34637864  0.40868658     0.18700
H945        H  0.32958604  0.25736154  0.37810937     0.18700
N946        N  0.38870677  0.25003135  0.37807652    -0.88000
H947        H  0.32856597  0.37130236  0.39936290     0.36100
H948        H  0.32945951  0.35649470  0.42759105     0.41100
H949        H  0.37422816  0.23375500  0.37150233     0.40800
H950        H  0.39895461  0.24086461  0.39355180     0.35700
C951        C  0.09710180  0.18098861  0.41117279    -0.26100
C952        C  0.08335035  0.20491572  0.39847581    -0.14100
C953        C  0.10086450  0.22532593  0.38548391     0.36500
C954        C  0.13173966  0.22184651  0.38562053    -0.25500
C955        C  0.14573041  0.19925144  0.39949580    -0.14800
C956        C  0.12841544  0.17840423  0.41221637     0.37600
N957        N  0.14250467  0.15597134  0.42725093    -0.89000
H958        H  0.08358962  0.16553236  0.42140836     0.18700
H959        H  0.14503964  0.23834445  0.37625754     0.18700
N960        N  0.08739027  0.25064631  0.37323184    -0.88000
H961        H  0.13482690  0.13509138  0.42174129     0.36100
H962        H  0.13528305  0.15933245  0.44497632     0.41100
H963        H  0.09333341  0.24962951  0.35502097     0.40800
H964        H  0.09633971  0.27017549  0.38049903     0.35700
C965        C  0.39879278  0.96475918  0.38104697    -0.26100
C966        C  0.41685980  0.94576878  0.39535201    -0.14100
C967        C  0.39702818  0.43153520  0.40678784     0.36500
C968        C  0.36574080  0.43001011  0.40775670    -0.25500
C969        C  0.34789240  0.45170469  0.39573947    -0.14800
C970        C  0.36803211  0.96141244  0.38032549     0.37600
N971        N  0.35006025  0.98254783  0.36671190    -0.89000
H972        H  0.40848379  0.98349505  0.37145494     0.18700
H973        H  0.35545870  0.41337439  0.41921604     0.18700
N974        N  0.41544520  0.41065551  0.42018591    -0.88000
H975        H  0.35662560  0.98145697  0.34863669     0.36100
H976        H  0.35441104  0.00409100  0.37303362     0.41100
H977        H  0.41112192  0.38915967  0.41382963     0.40800
H978        H  0.40914555  0.41155773  0.43832053     0.35700
C979        C  0.14486555  0.52672771  0.38472002    -0.26100
C980        C  0.16055752  0.54916785  0.39672446    -0.14100
C981        C  0.15467365  0.06451758  0.39892932     0.36500
C982        C  0.12332718  0.06559916  0.39970452    -0.25500
C983        C  0.10692615  0.04000730  0.39397497    -0.14800
C984        C  0.11386189  0.52714819  0.38397641     0.37600
N985        N  0.09843656  0.50311817  0.37246758    -0.89000
H986        H  0.15682392  0.50791454  0.37675197     0.18700
H987        H  0.11181445  0.08594300  0.40529447     0.18700
N988        N  0.17120428  0.09064076  0.40507335    -0.88000
H989        H  0.10524035  0.48293796  0.38071493     0.36100
H990        H  0.10495193  0.50248614  0.35437178     0.41100
H991        H  0.18462731  0.09617121  0.39035741     0.40800
H992        H  0.18520950  0.08538481  0.41975380     0.35700
C993        C  0.21092017  0.24272995  0.27272294    -0.26100
C994        C  0.23684523  0.23348861  0.26059789    -0.14100
C995        C  0.26317655  0.22712990  0.27409444     0.36500
C996        C  0.26266930  0.22891765  0.29940576    -0.25500
C997        C  0.23660186  0.23801164  0.31163435    -0.14800
C998        C  0.21062360  0.24588447  0.29793589     0.37600
N999        N  0.18382070  0.25773524  0.30880049    -0.89000
H1000       H  0.19094330  0.24854574  0.26237036     0.18700
H1001       H  0.28286835  0.22356976  0.30962657     0.18700
N1002       N  0.29070922  0.21918017  0.26249766    -0.88000
H1003       H  0.18020992  0.27938063  0.30184861     0.36100
H1004       H  0.18621894  0.26017148  0.32743293     0.41100
H1005       H  0.29651312  0.23678399  0.25095732     0.40800
H1006       H  0.28719433  0.20011677  0.25203847     0.35700
C1007       C  0.30483613  0.34035933  0.17476620    -0.26100
C1008       C  0.27691703  0.33009572  0.16685981    -0.14100
C1009       C  0.25491950  0.35062714  0.15833391     0.36500
C1010       C  0.26061226  0.38101445  0.15890944    -0.25500
C1011       C  0.28778765  0.39162172  0.16799059    -0.14800
C1012       C  0.31057931  0.37117412  0.17545721     0.37600
N1013       N  0.33920889  0.38084919  0.18411284    -0.89000
H1014       H  0.32174875  0.32442746  0.18113792     0.18700
H1015       H  0.24302561  0.39667446  0.15326719     0.18700
N1016       N  0.22606017  0.34128601  0.15009893    -0.88000
H1017       H  0.34109734  0.37468545  0.20232126     0.36100
H1018       H  0.34097600  0.40414807  0.18318637     0.41100
H1019       H  0.21593974  0.32907301  0.16391052     0.40800
H1020       H  0.22886569  0.32738809  0.13514868     0.35700
C1021       C  0.21909034  0.08788736  0.15440599    -0.26100
C1022       C  0.19748920  0.07096063  0.16617805    -0.14100
C1023       C  0.17349015  0.08535967  0.17802125     0.36500
C1024       C  0.17276551  0.11691485  0.17919529    -0.25500
C1025       C  0.19568808  0.13364878  0.16870149    -0.14800
C1026       C  0.21875093  0.11902506  0.15583613     0.37600
N1027       N  0.24240059  0.13592818  0.14504726    -0.89000
H1028       H  0.23754004  0.07655112  0.14545631     0.18700
H1029       H  0.15510560  0.12838987  0.18895675     0.18700
N1030       N  0.15109489  0.06784902  0.18974848    -0.88000
H1031       H  0.25738851  0.12176575  0.13598055     0.36100
H1032       H  0.25450677  0.14586481  0.15900345     0.41100
H1033       H  0.13949658  0.05631094  0.17633034     0.40800
H1034       H  0.13550989  0.08191260  0.19821036     0.35700
C1035       C  0.22878542  0.48071514  0.27365571    -0.26100
C1036       C  0.25385142  0.49118375  0.26125424    -0.14100
C1037       C  0.28223120  0.98990356  0.26983459     0.36500
C1038       C  0.28307048  0.99077261  0.29515571    -0.25500
C1039       C  0.25187044  0.49300881  0.31221805    -0.14800
C1040       C  0.22775206  0.48110734  0.29894357     0.37600
N1041       N  0.20237548  0.46858943  0.31073748    -0.89000
H1042       H  0.21008828  0.47179101  0.26358293     0.18700
H1043       H  0.30235454  0.00008496  0.30420970     0.18700
N1044       N  0.30713892  0.00119989  0.25665154    -0.88000
H1045       H  0.19211761  0.48519971  0.32116837     0.36100
H1046       H  0.20999083  0.45137347  0.32227825     0.41100
H1047       H  0.29943821  0.01858295  0.24532656     0.40800
H1048       H  0.31567907  0.98395107  0.24587089     0.35700
C1049       C  0.46754065  0.23110627  0.27124338    -0.26100
C1050       C  0.48267017  0.25392297  0.25899298    -0.14100
C1051       C  0.01798587  0.27954335  0.27400385     0.36500
C1052       C  0.01364518  0.27838623  0.29909671    -0.25500
C1053       C  0.48184457  0.25210330  0.30998430    -0.14800
C1054       C  0.46695867  0.23010780  0.29660453     0.37600
N1055       N  0.45122045  0.20680698  0.30877787    -0.89000
H1056       H  0.45619837  0.21397201  0.26103316     0.18700
H1057       H  0.02471391  0.29447239  0.31054968     0.18700
N1058       N  0.03668752  0.30233120  0.26423994    -0.88000
H1059       H  0.42886278  0.20785933  0.30307817     0.36100
H1060       H  0.46031800  0.18619240  0.30335048     0.41100
H1061       H  0.02400270  0.31518420  0.25191231     0.40800
H1062       H  0.05416181  0.29185587  0.25488663     0.35700
C1063       C  0.42184986  0.39850498  0.16404132    -0.26100
C1064       C  0.44739556  0.41001019  0.17548898    -0.14100
C1065       C  0.98320681  0.39474024  0.18413933     0.36500
C1066       C  0.98047810  0.36380071  0.18474893    -0.25500
C1067       C  0.43926681  0.34776512  0.17335272    -0.14800
C1068       C  0.41761614  0.36725555  0.16283124     0.37600
N1069       N  0.39261448  0.35519313  0.14990887    -0.89000
H1070       H  0.40635639  0.41375787  0.15486175     0.18700
H1071       H  0.99806371  0.35037258  0.19335066     0.18700
N1072       N  0.00880796  0.40809880  0.19519897    -0.88000
H1073       H  0.37875477  0.37252747  0.14324129     0.36100
H1074       H  0.37997646  0.34296281  0.16223652     0.41100
H1075       H  0.02806761  0.39880809  0.18742701     0.40800
H1076       H  0.00893277  0.40240736  0.21355698     0.35700
C1077       C  0.51465206  0.14309859  0.18488874    -0.26100
C1078       C  0.53765927  0.16010203  0.17511593    -0.14100
C1079       C  0.08570236  0.15063024  0.16946297     0.36500
C1080       C  0.08603298  0.11921738  0.16868703    -0.25500
C1081       C  0.54026666  0.09745466  0.17302276    -0.14800
C1082       C  0.51547796  0.11210706  0.18370685     0.37600
N1083       N  0.48994365  0.09615905  0.19214640    -0.89000
H1084       H  0.49489065  0.15415951  0.19212717     0.18700
H1085       H  0.10612585  0.10728167  0.16317748     0.18700
N1086       N  0.11232847  0.16645911  0.16364481    -0.88000
H1087       H  0.49659569  0.08179029  0.20623319     0.36100
H1088       H  0.48136099  0.08344854  0.17797141     0.41100
H1089       H  0.11787831  0.17988201  0.17838037     0.40800
H1090       H  0.10778514  0.18049809  0.14882946     0.35700
C1091       C  0.02601148  0.98331550  0.29371133    -0.26100
C1092       C  0.50622203  0.00139789  0.30913254    -0.14100
C1093       C  0.48661554  0.02036712  0.29581038     0.36500
C1094       C  0.48670867  0.01953422  0.27041732    -0.25500
C1095       C  0.50621784  0.00003542  0.25810740    -0.14800
C1096       C  0.03332493  0.48910442  0.27363480     0.37600
N1097       N  0.05857698  0.47352992  0.26335113    -0.89000
H1098       H  0.04875264  0.47963220  0.30989939     0.18700
H1099       H  0.47148547  0.03408925  0.26024965     0.18700
N1100       N  0.46667984  0.04051105  0.30805238    -0.88000
H1101       H  0.07777803  0.48532710  0.26799814     0.36100
H1102       H  0.05742989  0.47316107  0.24452482     0.41100
H1103       H  0.47124950  0.06233627  0.30228368     0.40800
H1104       H  0.44480984  0.03564142  0.30271890     0.35700
N1105       N  0.02803122  0.53383680  0.14373160    -0.36400
N1106       N  0.99442265  0.98842324  0.13820300    -0.56900
N1107       N  0.48262533  0.97586937  0.19544954    -0.36400
N1108       N  0.52582967  0.52423224  0.19405331    -0.56900
C1109       C  0.01957698  0.53441082  0.12018196     0.27200
C1110       C  0.03707894  0.56177687  0.14928410     0.27200
C1111       C  0.45995280  0.95682085  0.19177642     0.27200
C1112       C  0.48371340  0.98187008  0.21941730     0.27200
C1113       C  0.00420340  0.98767642  0.11516276     0.35800
C1114       C  0.98137089  0.96178001  0.14221636     0.35800
C1115       C  0.54563358  0.54559678  0.18877030     0.35800
C1116       C  0.52880042  0.51812296  0.21781750     0.35800
C1117       C  0.02452006  0.56253030  0.11036252    -0.21600
C1118       C  0.03516641  0.57992507  0.12877265    -0.21600
C1119       C  0.44647017  0.95034346  0.21362330    -0.21600
C1120       C  0.46133223  0.96632515  0.23107092    -0.21600
C1121       C  0.99674193  0.96094128  0.10429497    -0.22700
C1122       C  0.98264464  0.94429169  0.12154904    -0.22700
C1123       C  0.56182973  0.55292686  0.20928877    -0.22700
C1124       C  0.55140695  0.53515287  0.22772612    -0.22700
C1125       C  0.01854443  0.01151065  0.10353320    -0.18100
C1126       C  0.04666762  0.57172520  0.17230350    -0.18100
C1127       C  0.50833143  0.50085387  0.23096655    -0.18000
C1128       C  0.45504635  0.94096679  0.17016872    -0.18000
H1129       H  0.02012193  0.56999972  0.09200605     0.14900
H1130       H  0.04078442  0.60336229  0.12712812     0.14900
H1131       H  0.42854605  0.93477791  0.21672146     0.14900
H1132       H  0.45679717  0.96573424  0.25024231     0.14900
H1133       H  0.00147691  0.95395737  0.08600691     0.13100
H1134       H  0.97439962  0.92186204  0.11900067     0.13100
H1135       H  0.57801274  0.57059393  0.21103787     0.13100
H1136       H  0.55820928  0.53616058  0.24650566     0.13100
H1137       H  0.02906714  0.51504953  0.15488050     0.26400
H1138       H  0.49897672  0.98040679  0.18277724     0.26400
N1139       N  0.02332327  0.73853482  0.13848586    -0.36400
N1140       N  0.98099893  0.78906762  0.13435747    -0.56900
N1141       N  0.46140730  0.77529955  0.19139736    -0.36400
N1142       N  0.50319305  0.72720003  0.19384878    -0.56900
C1143       C  0.01650905  0.73879878  0.11459873     0.27200
C1144       C  0.03135447  0.71001406  0.14450670     0.27200
C1145       C  0.44015875  0.79595338  0.18578919     0.27200
C1146       C  0.45819305  0.76795533  0.21498933     0.27200
C1147       C  0.99317131  0.78931535  0.11209607     0.35800
C1148       C  0.97027894  0.81715193  0.13810440     0.35800
C1149       C  0.52559323  0.70711191  0.19082092     0.35800
C1150       C  0.50095564  0.73192906  0.21783899     0.35800
C1151       C  0.02103135  0.71043283  0.10512141    -0.21600
C1152       C  0.03004288  0.69214824  0.12405776    -0.21600
C1153       C  0.42301290  0.80201185  0.20600246    -0.21600
C1154       C  0.43417877  0.78400623  0.22442957    -0.21600
C1155       C  0.98926103  0.81722415  0.10128463    -0.22700
C1156       C  0.97516969  0.83507520  0.11795107    -0.22700
C1157       C  0.53776812  0.69886664  0.21307835    -0.22700
C1158       C  0.52225746  0.71478125  0.23023272    -0.22700
C1159       C  0.00682999  0.76423492  0.10119189    -0.18100
C1160       C  0.53036052  0.69133152  0.16922999    -0.18100
C1161       C  0.47837975  0.74972785  0.22863041    -0.18000
C1162       C  0.44091671  0.81425544  0.16502133    -0.18000
H1163       H  0.01757308  0.70350448  0.08661883     0.14900
H1164       H  0.03512021  0.66838087  0.12284431     0.14900
H1165       H  0.40541588  0.81887185  0.20755628     0.14900
H1166       H  0.42658250  0.78400968  0.24294950     0.14900
H1167       H  0.99653092  0.82417582  0.08352901     0.13100
H1168       H  0.96943910  0.85857293  0.11547176     0.13100
H1169       H  0.55505256  0.68205074  0.21658100     0.13100
H1170       H  0.52551041  0.71304267  0.24959121     0.13100
H1171       H  0.02438387  0.75724757  0.14956644     0.26400
H1172       H  0.48000330  0.77111803  0.18077711     0.26400
N1173       N  0.27104416  0.95581985  0.14178084    -0.36400
N1174       N  0.21970416  0.50599181  0.14614205    -0.56900
N1175       N  0.22774052  0.51131101  0.19903983    -0.36400
N1176       N  0.27543704  0.95460207  0.19493397    -0.56900
C1177       C  0.27187754  0.96385343  0.11813152     0.27200
C1178       C  0.29468149  0.93744630  0.14633453     0.27200
C1179       C  0.21651357  0.53864914  0.19286317     0.27200
C1180       C  0.24064387  0.51390991  0.22113880     0.27200
C1181       C  0.21586842  0.49833297  0.12277984     0.35800
C1182       C  0.19849837  0.52656626  0.15139481     0.35800
C1183       C  0.28614246  0.92693647  0.18962242     0.35800
C1184       C  0.26730263  0.95356086  0.21840248     0.35800
C1185       C  0.29694689  0.95043954  0.10769078    -0.21600
C1186       C  0.31113366  0.93364401  0.12549252    -0.21600
C1187       C  0.22233149  0.55876246  0.21135849    -0.21600
C1188       C  0.23707972  0.54294241  0.22940079    -0.21600
C1189       C  0.19140519  0.51409302  0.11315371    -0.22700
C1190       C  0.18049399  0.53198330  0.13130744    -0.22700
C1191       C  0.28507460  0.90848773  0.20991918    -0.22700
C1192       C  0.27379423  0.92565903  0.22832445    -0.22700
C1193       C  0.24855398  0.97988777  0.10569418    -0.18100
C1194       C  0.29666104  0.91831660  0.16661827    -0.18100
C1195       C  0.25478699  0.97793485  0.23098521    -0.18000
C1196       C  0.20051139  0.54580429  0.17131574    -0.18000
H1197       H  0.30383947  0.95099397  0.08905487     0.14900
H1198       H  0.33024742  0.91874177  0.12307092     0.14900
H1199       H  0.21622288  0.58233612  0.21201660     0.14900
H1200       H  0.24461628  0.55184405  0.24649610     0.14900
H1201       H  0.18309858  0.51446988  0.09479048     0.13100
H1202       H  0.16274222  0.54869904  0.12947847     0.13100
H1203       H  0.29153102  0.88508738  0.21147545     0.13100
H1204       H  0.26986011  0.91820717  0.24665846     0.13100
H1205       H  0.25271212  0.95763364  0.15314204     0.26400
H1206       H  0.22458839  0.49142670  0.18966069     0.26400
N1207       N  0.26221131  0.75427659  0.14005228    -0.36400
N1208       N  0.21997185  0.70872095  0.14059202    -0.56900
N1209       N  0.21697545  0.71144875  0.19393276    -0.36400
N1210       N  0.26134340  0.75800364  0.19304805    -0.56900
C1211       C  0.26539368  0.74457063  0.11704084     0.27200
C1212       C  0.28520894  0.77243219  0.14499914     0.27200
C1213       C  0.20661385  0.68366905  0.18966645     0.27200
C1214       C  0.22571327  0.71210488  0.21739529     0.27200
C1215       C  0.22053463  0.71269599  0.11637846     0.35800
C1216       C  0.19764239  0.68977962  0.14546117     0.35800
C1217       C  0.27326350  0.78475144  0.18742748     0.35800
C1218       C  0.25194572  0.76022630  0.21613282     0.35800
C1219       C  0.29135475  0.75657697  0.10750944    -0.21600
C1220       C  0.30363803  0.77435419  0.12513104    -0.21600
C1221       C  0.20803711  0.66685257  0.21092737    -0.21600
C1222       C  0.21962027  0.68503388  0.22851101    -0.21600
C1223       C  0.19810995  0.69592725  0.10573778    -0.22700
C1224       C  0.18362054  0.68155764  0.12417261    -0.22700
C1225       C  0.27178671  0.80380415  0.20714612    -0.22700
C1226       C  0.25873512  0.78799200  0.22550222    -0.22700
C1227       C  0.24336757  0.72836367  0.10409209    -0.18100
C1228       C  0.28595053  0.79189182  0.16486046    -0.18100
C1229       C  0.23842394  0.73687391  0.22903365    -0.18000
C1230       C  0.19631695  0.67305985  0.16706340    -0.18000
H1231       H  0.30026078  0.75418362  0.08955209     0.14900
H1232       H  0.32308195  0.78830031  0.12319434     0.14900
H1233       H  0.20157008  0.64382925  0.21367595     0.14900
H1234       H  0.22383937  0.67877308  0.24717217     0.14900
H1235       H  0.19368221  0.69239957  0.08676984     0.13100
H1236       H  0.16645956  0.66489499  0.12207010     0.13100
H1237       H  0.27941269  0.82664601  0.20833285     0.13100
H1238       H  0.25422919  0.79615349  0.24350435     0.13100
H1239       H  0.24288389  0.75356779  0.15035449     0.26400
H1240       H  0.21664006  0.72945704  0.18187363     0.26400
N1241       N  0.02908655  0.52380989  0.42664791    -0.36400
N1242       N  0.47891567  0.48409994  0.42417068    -0.56900
N1243       N  0.47954199  0.48550691  0.37123896    -0.36400
N1244       N  0.02762579  0.52555314  0.37343944    -0.56900
C1245       C  0.03006701  0.51341405  0.44968236     0.27200
C1246       C  0.05654830  0.53430847  0.42158182     0.27200
C1247       C  0.45919821  0.46428063  0.37563684     0.27200
C1248       C  0.48707001  0.48350609  0.34766033     0.27200
C1249       C  0.47873698  0.49275107  0.44752664     0.35800
C1250       C  0.45105663  0.47452718  0.41922943     0.35800
C1251       C  0.04768431  0.54688491  0.37814372     0.35800
C1252       C  0.02182377  0.52668856  0.34950085     0.35800
C1253       C  0.05798499  0.51823744  0.45973623    -0.21600
C1254       C  0.07491089  0.53097531  0.44188311    -0.21600
C1255       C  0.45357813  0.44843369  0.35465819    -0.21600
C1256       C  0.47130007  0.46051861  0.33696575    -0.21600
C1257       C  0.45098595  0.48822811  0.45766419    -0.22700
C1258       C  0.43322459  0.47714663  0.43960667    -0.22700
C1259       C  0.05448258  0.56216243  0.35701097    -0.22700
C1260       C  0.03782805  0.54951656  0.33883550    -0.22700
C1261       C  0.50386160  0.50345732  0.45994469    -0.18100
C1262       C  0.06557365  0.54665453  0.39917116    -0.18100
C1263       C  0.50588437  0.50349820  0.33526456    -0.18000
C1264       C  0.44183511  0.46280484  0.39672612    -0.18000
H1265       H  0.06559110  0.51241929  0.47781041     0.14900
H1266       H  0.09814596  0.53701258  0.44378386     0.14900
H1267       H  0.43738098  0.43091327  0.35216897     0.14900
H1268       H  0.47164452  0.45388628  0.31819871     0.14900
H1269       H  0.44414464  0.49296365  0.47598433     0.13100
H1270       H  0.40986097  0.47170678  0.44142967     0.13100
H1271       H  0.07126327  0.57916098  0.35473134     0.13100
H1272       H  0.03885057  0.55516978  0.31981594     0.13100
H1273       H  0.01016388  0.52521077  0.41559053     0.26400
H1274       H  0.48392389  0.50318099  0.38278157     0.26400
N1275       N  0.00627710  0.74577350  0.41744633    -0.36400
N1276       N  0.45599038  0.77817797  0.42205820    -0.56900
N1277       N  0.45251224  0.77089623  0.36921624    -0.36400
N1278       N  0.00782597  0.74937043  0.36455955    -0.56900
C1279       C  0.00511659  0.75348743  0.44099538     0.27200
C1280       C  0.03471389  0.73669122  0.41307326     0.27200
C1281       C  0.43434508  0.79472112  0.37328013     0.27200
C1282       C  0.45790014  0.77015394  0.34520658     0.27200
C1283       C  0.45659174  0.77061882  0.44576493     0.35800
C1284       C  0.42813470  0.78915176  0.41745593     0.35800
C1285       C  0.03056098  0.72977898  0.36855271     0.35800
C1286       C  0.00303780  0.74997481  0.34048832     0.35800
C1287       C  0.03280637  0.74849664  0.45186651    -0.21600
C1288       C  0.05157232  0.73812753  0.43420579    -0.21600
C1289       C  0.42788761  0.80935966  0.35165881    -0.21600
C1290       C  0.44291229  0.79394583  0.33389769    -0.21600
C1291       C  0.42950366  0.77782389  0.45644529    -0.22700
C1292       C  0.41130682  0.78926915  0.43841584    -0.22700
C1293       C  0.04039774  0.71779804  0.34691325    -0.22700
C1294       C  0.02288115  0.73057111  0.32908190    -0.22700
C1295       C  0.48142900  0.75744014  0.45785345    -0.18100
C1296       C  0.04593994  0.72676241  0.39067625    -0.18100
C1297       C  0.47438408  0.74742364  0.33322038    -0.18000
C1298       C  0.41749437  0.79821747  0.39440895    -0.18000
H1299       H  0.03900311  0.75239376  0.47050744     0.14900
H1300       H  0.07501878  0.73236570  0.43671937     0.14900
H1301       H  0.41245861  0.82807457  0.34888382     0.14900
H1302       H  0.44181579  0.79897406  0.31475812     0.14900
H1303       H  0.42319886  0.77429342  0.47507820     0.13100
H1304       H  0.38823180  0.79647861  0.44048907     0.13100
H1305       H  0.05904210  0.70238581  0.34422987     0.13100
H1306       H  0.02507641  0.72663270  0.30989985     0.13100
H1307       H  0.98812567  0.74436533  0.40563638     0.26400
H1308       H  0.45626893  0.75352541  0.38150116     0.26400
N1309       N  0.23900106  0.01060688  0.42400659    -0.36400
N1310       N  0.28596849  0.96456667  0.42595718    -0.56900
N1311       N  0.28484523  0.96404197  0.37286879    -0.36400
N1312       N  0.23827755  0.00687639  0.37081614    -0.56900
C1313       C  0.23852322  0.00204763  0.44751315     0.27200
C1314       C  0.21134705  0.02144817  0.41848088     0.27200
C1315       C  0.30339522  0.94094644  0.37864252     0.27200
C1316       C  0.27703705  0.96116314  0.34932972     0.27200
C1317       C  0.28677663  0.97451049  0.44896948     0.35800
C1318       C  0.31340140  0.95275811  0.42153691     0.35800
C1319       C  0.21822081  0.02918819  0.37426634     0.35800
C1320       C  0.24357262  0.00577385  0.34687049     0.35800
C1321       C  0.21070132  0.00831298  0.45726414    -0.21600
C1322       C  0.19341722  0.02028678  0.43888642    -0.21600
C1323       C  0.30759400  0.92298243  0.35856930    -0.21600
C1324       C  0.29057127  0.93553265  0.34008991    -0.21600
C1325       C  0.31426107  0.96800495  0.45958017    -0.22700
C1326       C  0.33139155  0.95472549  0.44205750    -0.22700
C1327       C  0.21068676  0.04264258  0.35233754    -0.22700
C1328       C  0.22708014  0.02800248  0.33494038    -0.22700
C1329       C  0.26280096  0.98924679  0.46046861    -0.18100
C1330       C  0.20162971  0.03227613  0.39557761    -0.18100
C1331       C  0.26023984  0.98260580  0.33570820    -0.18000
C1332       C  0.32242203  0.94099854  0.39899760    -0.18000
H1333       H  0.20340100  0.00404408  0.47555257     0.14900
H1334       H  0.17019757  0.02725807  0.44043062     0.14900
H1335       H  0.32280817  0.90394850  0.35705947     0.14900
H1336       H  0.28954889  0.92759996  0.32167380     0.14900
H1337       H  0.32153781  0.97325999  0.47774253     0.13100
H1338       H  0.35448160  0.94765070  0.44437910     0.13100
H1339       H  0.19389170  0.06003591  0.34914480     0.13100
H1340       H  0.22568992  0.03208090  0.31566509     0.13100
H1341       H  0.25765731  0.01072939  0.41285950     0.26400
H1342       H  0.28265453  0.98327241  0.38324374     0.26400
N1343       N  0.20917231  0.72954022  0.42314834    -0.36400
N1344       N  0.25431470  0.77611376  0.42143865    -0.56900
N1345       N  0.25566418  0.76904494  0.36866931    -0.36400
N1346       N  0.21027278  0.72627494  0.37012406    -0.56900
C1347       C  0.20826831  0.74093885  0.44570547     0.27200
C1348       C  0.18144455  0.71952720  0.41811186     0.27200
C1349       C  0.27304895  0.79302905  0.37207075     0.27200
C1350       C  0.24911522  0.76775704  0.34479148     0.27200
C1351       C  0.25525620  0.76906718  0.44525050     0.35800
C1352       C  0.28081620  0.78881312  0.41643385     0.35800
C1353       C  0.19017029  0.70525100  0.37548573     0.35800
C1354       C  0.21672092  0.72337453  0.34651615     0.35800
C1355       C  0.18021051  0.73710431  0.45554725    -0.21600
C1356       C  0.16305130  0.72411228  0.43795349    -0.21600
C1357       C  0.27780244  0.80730439  0.35014320    -0.21600
C1358       C  0.26235083  0.79153082  0.33289560    -0.21600
C1359       C  0.28176986  0.77834844  0.45561593    -0.22700
C1360       C  0.29815109  0.79058605  0.43729680    -0.22700
C1361       C  0.18363843  0.68864716  0.35509189    -0.22700
C1362       C  0.20089952  0.69985044  0.33672488    -0.22700
C1363       C  0.23225272  0.75454506  0.45770006    -0.18100
C1364       C  0.17198051  0.70703103  0.39595958    -0.18100
C1365       C  0.23358667  0.74429215  0.33339025    -0.18000
C1366       C  0.29005916  0.79773526  0.39312844    -0.18000
H1367       H  0.17261751  0.74399695  0.47321697     0.14900
H1368       H  0.13962282  0.71879721  0.43963844     0.14900
H1369       H  0.29215030  0.82620451  0.34684981     0.14900
H1370       H  0.26200707  0.79624650  0.31368722     0.14900
H1371       H  0.28893826  0.77576443  0.47424912     0.13100
H1372       H  0.32047079  0.79932301  0.43917611     0.13100
H1373       H  0.16685408  0.67154588  0.35338928     0.13100
H1374       H  0.20040722  0.69279276  0.31806103     0.13100
H1375       H  0.22810832  0.72748383  0.41239254     0.26400
H1376       H  0.25316176  0.75195903  0.38132218     0.26400
O1377       O  0.46192403  0.52424580  0.53133221    -0.71500
O1378       O  0.04813830  0.52564695  0.53517191    -0.71800
O1379       O  0.50735625  0.52528682  0.49904826    -0.71600
O1380       O  0.50224999  0.52123661  0.56735050    -0.71600
O1381       O  0.51338316  0.97088740  0.56918444    -0.71600
O1382       O  0.50838824  0.97165619  0.50035663    -0.71600
O1383       O  0.05448979  0.96913787  0.52909710    -0.71500
O1384       O  0.46790249  0.97127679  0.53648764    -0.71700
V1385       V  0.50504004  0.52232972  0.53323333     1.35200
V1386       V  0.51099811  0.97215682  0.53475309     1.35200
C1387       C  0.45252051  0.99548815  0.53489192     0.77700
C1388       C  0.06933170  0.99319763  0.53017423     0.77800
C1389       C  0.51003458  0.99607602  0.48867433     0.77600
C1390       C  0.51075177  0.99507923  0.58087936     0.77600
O1391       O  0.44084412  0.73308535  0.52969311    -0.71500
O1392       O  0.02497017  0.73405894  0.52547810    -0.71800
O1393       O  0.48254558  0.73532917  0.56517589    -0.71600
O1394       O  0.48561026  0.73395886  0.49666711    -0.71600
O1395       O  0.47967152  0.78244034  0.49578164    -0.71600
O1396       O  0.48354330  0.78396816  0.56426049    -0.71600
O1397       O  0.02566169  0.78254726  0.52526414    -0.71500
O1398       O  0.43844384  0.78154249  0.53125040    -0.71700
V1399       V  0.48404056  0.73554437  0.53095366     1.35200
V1400       V  0.48170233  0.78218599  0.53004905     1.35200
C1401       C  0.42461401  0.75680322  0.53053503     0.77700
C1402       C  0.04036618  0.75778888  0.52553982     0.77800
C1403       C  0.48328791  0.75989034  0.57640797     0.77600
C1404       C  0.48236390  0.75797024  0.48456593     0.77600
O1405       O  0.29876645  0.52396153  0.53685818    -0.71500
O1406       O  0.21238656  0.52526776  0.53724415    -0.71800
O1407       O  0.25641986  0.52233760  0.57171090    -0.71600
O1408       O  0.25509311  0.52655389  0.50280859    -0.71600
O1409       O  0.26463844  0.96658263  0.49952533    -0.71600
O1410       O  0.25804725  0.96904687  0.56771923    -0.71600
O1411       O  0.21808084  0.96837725  0.53089854    -0.71500
O1412       O  0.30456213  0.96784097  0.53633360    -0.71700
V1413       V  0.25562681  0.52362236  0.53719043     1.35200
V1414       V  0.26133071  0.96882644  0.53359374     1.35200
C1415       C  0.31925911  0.99193900  0.53413458     0.77700
C1416       C  0.20294091  0.99283155  0.53182629     0.77800
C1417       C  0.26007394  0.99354794  0.57889164     0.77600
C1418       C  0.26240030  0.99039894  0.48712088     0.77600
O1419       O  0.27643408  0.72673812  0.52895079    -0.71500
O1420       O  0.18957563  0.72653417  0.52974809    -0.71800
O1421       O  0.23185990  0.72846208  0.49521544    -0.71600
O1422       O  0.23418277  0.72440688  0.56358915    -0.71600
O1423       O  0.23007248  0.77276556  0.56525554    -0.71600
O1424       O  0.23385610  0.77709905  0.49671913    -0.71600
O1425       O  0.18893994  0.77505132  0.52934564    -0.71500
O1426       O  0.27528109  0.77503550  0.53256463    -0.71700
V1427       V  0.23299808  0.72744774  0.52941690     1.35200
V1428       V  0.23209330  0.77404898  0.53096026     1.35200
C1429       C  0.29090591  0.75101259  0.53087958     0.77700
C1430       C  0.17419919  0.75088976  0.52927036     0.77800
C1431       C  0.23282883  0.75341255  0.48434230     0.77600
C1432       C  0.23190127  0.74779480  0.57621168     0.77600
O1433       O  0.03496696  0.51221558  0.00089755    -0.71500
O1434       O  0.03294773  0.51305244  0.06951939    -0.71800
O1435       O  0.04024668  0.96996328  0.03042408    -0.71600
O1436       O  0.03378938  0.55600865  0.03458513    -0.71600
O1437       O  0.98537022  0.55663152  0.03505018    -0.71600
O1438       O  0.99179516  0.97040622  0.03018239    -0.71600
O1439       O  0.98439348  0.51121618  0.06828474    -0.71500
O1440       O  0.98639380  0.51536828  0.99975986    -0.71700
V1441       V  0.03300451  0.51266783  0.03518923     1.35200
V1442       V  0.98641328  0.51328280  0.03404287     1.35200
C1443       C  0.01099824  0.51433804  0.98868527     0.77700
C1444       C  0.00834603  0.51151176  0.08054045     0.77800
C1445       C  0.01609765  0.95519624  0.03003737     0.77600
C1446       C  0.00951637  0.57136334  0.03460303     0.77600
O1447       O  0.98793782  0.80740093  0.02694347    -0.71500
O1448       O  0.98740398  0.72061661  0.02863807    -0.71800
O1449       O  0.98540769  0.76496180  0.06178392    -0.71600
O1450       O  0.98935540  0.76312989  0.99335062    -0.71600
O1451       O  0.03792358  0.76338077  0.99526540    -0.71600
O1452       O  0.03396324  0.76259423  0.06410682    -0.71600
O1453       O  0.03581179  0.71968735  0.02999050    -0.71500
O1454       O  0.03629997  0.80619594  0.02964341    -0.71700
V1455       V  0.46528166  0.75405098  0.03076907     1.35200
V1456       V  0.03505601  0.76297000  0.02967743     1.35200
C1457       C  0.01225607  0.82179250  0.02836392     0.77700
C1458       C  0.01159232  0.70512615  0.02986328     0.77800
C1459       C  0.00890850  0.76383976  0.07457037     0.77600
C1460       C  0.01420087  0.76336606  0.98261374     0.77600
O1461       O  0.25801039  0.52257515  0.03360210    -0.71500
O1462       O  0.26913344  0.93667371  0.03299612    -0.71800
O1463       O  0.25596851  0.47675347  0.00218952    -0.71600
O1464       O  0.25895706  0.48255004  0.07041276    -0.71600
O1465       O  0.21079199  0.47854352  0.07167336    -0.71600
O1466       O  0.20770656  0.48347885  0.00305591    -0.71600
O1467       O  0.22073264  0.93618558  0.03174893    -0.71500
O1468       O  0.21003851  0.52424500  0.03864258    -0.71700
V1469       V  0.25657978  0.47953452  0.03630358     1.35200
V1470       V  0.21012617  0.48094333  0.03730635     1.35200
C1471       C  0.23424920  0.53839777  0.03564097     0.77700
C1472       C  0.24532513  0.92141548  0.03219871     0.77800
C1473       C  0.23141951  0.48035296  0.99097781     0.77600
C1474       C  0.23547581  0.48055919  0.08284275     0.77600
O1475       O  0.26469382  0.68528832  0.02917134    -0.71500
O1476       O  0.26720951  0.77186525  0.03189588    -0.71800
O1477       O  0.26706793  0.72626770  0.06499380    -0.71600
O1478       O  0.26477180  0.73065569  0.99619879    -0.71600
O1479       O  0.21619796  0.72936139  0.99712265    -0.71600
O1480       O  0.21885806  0.73177549  0.06557605    -0.71600
O1481       O  0.21884528  0.77369190  0.03028593    -0.71500
O1482       O  0.21647656  0.68745206  0.03247549    -0.71700
V1483       V  0.26506913  0.72856052  0.03058429     1.35200
V1484       V  0.21855791  0.73054869  0.03135055     1.35200
C1485       C  0.24013498  0.67140521  0.03075714     0.77700
C1486       C  0.24330903  0.78780483  0.03103149     0.77800
C1487       C  0.24324519  0.72872549  0.07709585     0.77600
C1488       C  0.23999624  0.73007187  0.98501105     0.77600
N1489       N  0.03556611  0.99184761  0.92266698    -0.36400
N1490       N  0.98896407  0.53950804  0.92643496    -0.56900
N1491       N  0.47198270  0.52679295  0.87262194    -0.36400
N1492       N  0.51946311  0.98312472  0.87312141    -0.56900
C1493       C  0.02557883  0.99105239  0.94564560     0.27200
C1494       C  0.04568100  0.96388219  0.91740734     0.27200
C1495       C  0.44847648  0.54507294  0.87728185     0.27200
C1496       C  0.46995111  0.51860067  0.84915235     0.27200
C1497       C  0.99771812  0.53981598  0.94986083     0.35800
C1498       C  0.97689748  0.56695664  0.92166572     0.35800
C1499       C  0.54159433  0.96306329  0.87762509     0.35800
C1500       C  0.52058221  0.99005426  0.84941823     0.35800
C1501       C  0.03033943  0.96268956  0.95545757    -0.21600
C1502       C  0.04252776  0.94534480  0.93747782    -0.21600
C1503       C  0.43111350  0.54876041  0.85660677    -0.21600
C1504       C  0.44444047  0.53163194  0.83887113    -0.21600
C1505       C  0.99022130  0.56705896  0.96028466    -0.22700
C1506       C  0.97747678  0.58449866  0.94226609    -0.22700
C1507       C  0.55726126  0.95721002  0.85660567    -0.22700
C1508       C  0.54439045  0.97496680  0.83876858    -0.22700
C1509       C  0.01167638  0.51540394  0.96199601    -0.18100
C1510       C  0.54174886  0.94434512  0.89812142    -0.18100
C1511       C  0.49214147  0.50203056  0.83654046    -0.18000
C1512       C  0.44655059  0.56334172  0.89783129    -0.18000
H1513       H  0.02483460  0.95508426  0.97347364     0.14900
H1514       H  0.04845613  0.92178017  0.93911814     0.14900
H1515       H  0.41165242  0.56332941  0.85434898     0.14900
H1516       H  0.43696702  0.53007350  0.82028932     0.14900
H1517       H  0.99423752  0.57389313  0.97873876     0.13100
H1518       H  0.96950395  0.60741408  0.94415722     0.13100
H1519       H  0.57481536  0.94049588  0.85415407     0.13100
H1520       H  0.55031588  0.97491075  0.81984710     0.13100
H1521       H  0.03704946  0.01091925  0.91180971     0.26400
H1522       H  0.49073467  0.52465103  0.88377565     0.26400
N1523       N  0.99244258  0.74060839  0.91996862    -0.36400
N1524       N  0.03548340  0.78866904  0.92004549    -0.56900
N1525       N  0.50268561  0.78144812  0.86877265    -0.36400
N1526       N  0.46579813  0.73079082  0.86838993    -0.56900
C1527       C  0.00221278  0.73969092  0.94320702     0.27200
C1528       C  0.98199137  0.71308787  0.91474506     0.27200
C1529       C  0.52463691  0.80092767  0.87348583     0.27200
C1530       C  0.50490492  0.77389378  0.84521571     0.27200
C1531       C  0.02816097  0.78819924  0.94375916     0.35800
C1532       C  0.04592176  0.81642088  0.91545357     0.35800
C1533       C  0.44589494  0.70915422  0.87270486     0.35800
C1534       C  0.46396888  0.73738451  0.84458797     0.35800
C1535       C  0.99694760  0.71172653  0.95316692    -0.21600
C1536       C  0.98458287  0.69478020  0.93513643    -0.21600
C1537       C  0.54110137  0.80599731  0.85279395    -0.21600
C1538       C  0.52887799  0.78857630  0.83495500    -0.21600
C1539       C  0.03493633  0.81523278  0.95445405    -0.22700
C1540       C  0.04582229  0.83327524  0.93647130    -0.22700
C1541       C  0.43095395  0.70201445  0.85150925    -0.22700
C1542       C  0.44211063  0.72029671  0.83369286    -0.22700
C1543       C  0.01517503  0.76369363  0.95578931    -0.18100
C1544       C  0.44639577  0.69143988  0.89383769    -0.18100
C1545       C  0.48439033  0.75594955  0.83248563    -0.18000
C1546       C  0.52661653  0.81793093  0.89469988    -0.18000
H1547       H  0.00212128  0.70411593  0.97136354     0.14900
H1548       H  0.97818886  0.67157400  0.93696236     0.14900
H1549       H  0.55939274  0.82138231  0.85066458     0.14900
H1550       H  0.53621175  0.78762420  0.81638374     0.14900
H1551       H  0.03142555  0.82164505  0.97305707     0.13100
H1552       H  0.05249353  0.85630585  0.93869508     0.13100
H1553       H  0.41483473  0.68443216  0.84899351     0.13100
H1554       H  0.43601269  0.71987397  0.81474087     0.13100
H1555       H  0.99118095  0.75951034  0.90886548     0.26400
H1556       H  0.48463191  0.77764677  0.88003031     0.26400
N1557       N  0.25953294  0.95761442  0.92412393    -0.36400
N1558       N  0.20861851  0.50290405  0.92790143    -0.56900
N1559       N  0.21694273  0.50448012  0.87520039    -0.36400
N1560       N  0.26370599  0.96342516  0.87142308    -0.56900
C1561       C  0.24954105  0.95630601  0.94710288     0.27200
C1562       C  0.26772567  0.92940114  0.91783163     0.27200
C1563       C  0.19224382  0.52169507  0.87832590     0.27200
C1564       C  0.21895760  0.49822983  0.85135656     0.27200
C1565       C  0.21589755  0.50380615  0.95165288     0.35800
C1566       C  0.19604787  0.52992045  0.92246207     0.35800
C1567       C  0.28311806  0.94070306  0.87575681     0.35800
C1568       C  0.26786490  0.97239788  0.84841597     0.35800
C1569       C  0.25217826  0.92728499  0.95592153    -0.21600
C1570       C  0.26298914  0.91010350  0.93725420    -0.21600
C1571       C  0.17818378  0.52661109  0.85621075    -0.21600
C1572       C  0.19480103  0.51137710  0.83918757    -0.21600
C1573       C  0.20688747  0.53086058  0.96158141    -0.22700
C1574       C  0.19461467  0.54760264  0.94300222    -0.22700
C1575       C  0.30037254  0.93535428  0.85547591    -0.22700
C1576       C  0.29102170  0.95588063  0.83818284    -0.22700
C1577       C  0.23076575  0.48040642  0.96431753    -0.18100
C1578       C  0.28012790  0.92083388  0.89533344    -0.18100
C1579       C  0.24349538  0.48339068  0.84023369    -0.18000
C1580       C  0.18747053  0.53940464  0.89893623    -0.18000
H1581       H  0.24590608  0.91919001  0.97362808     0.14900
H1582       H  0.26700545  0.88613160  0.93811433     0.14900
H1583       H  0.15904960  0.54122630  0.85260627     0.14900
H1584       H  0.19056409  0.51146178  0.81990993     0.14900
H1585       H  0.20991500  0.53821334  0.98002227     0.13100
H1586       H  0.18619010  0.57040040  0.94446254     0.13100
H1587       H  0.31660056  0.91735776  0.85298787     0.13100
H1588       H  0.29881813  0.95696313  0.81974272     0.13100
H1589       H  0.26235374  0.97714937  0.91403590     0.26400
H1590       H  0.23394334  0.50221704  0.88801535     0.26400
N1591       N  0.21743843  0.70507865  0.92302653    -0.36400
N1592       N  0.25690544  0.75585453  0.92238757    -0.56900
N1593       N  0.25152922  0.75683912  0.86932890    -0.36400
N1594       N  0.21551995  0.70586213  0.86971047    -0.56900
C1595       C  0.22733986  0.70518727  0.94621690     0.27200
C1596       C  0.20839672  0.67695085  0.91826214     0.27200
C1597       C  0.27403591  0.77575955  0.87385935     0.27200
C1598       C  0.25350919  0.74883825  0.84584715     0.27200
C1599       C  0.24888467  0.75570861  0.94587303     0.35800
C1600       C  0.26509749  0.78418603  0.91729981     0.35800
C1601       C  0.19591639  0.68410555  0.87456150     0.35800
C1602       C  0.21265915  0.71245144  0.84594399     0.35800
C1603       C  0.22362867  0.67715451  0.95659523    -0.21600
C1604       C  0.21194662  0.65920428  0.93887329    -0.21600
C1605       C  0.29073012  0.77987295  0.85314940    -0.21600
C1606       C  0.27798332  0.76251634  0.83547293    -0.21600
C1607       C  0.25254851  0.78373792  0.95593428    -0.22700
C1608       C  0.26229326  0.80200901  0.93767159    -0.22700
C1609       C  0.18031748  0.67671825  0.85375938    -0.22700
C1610       C  0.19052033  0.69512910  0.83566872    -0.22700
C1611       C  0.23874934  0.73031525  0.95832423    -0.18100
C1612       C  0.19658572  0.66692017  0.89598539    -0.18100
C1613       C  0.23223504  0.73149985  0.83333498    -0.18000
C1614       C  0.27579389  0.79367813  0.89461042    -0.18000
H1615       H  0.22915591  0.67024660  0.97490003     0.14900
H1616       H  0.20653047  0.63576338  0.94101753     0.14900
H1617       H  0.30938762  0.79477312  0.85085556     0.14900
H1618       H  0.28523226  0.76103311  0.81690410     0.14900
H1619       H  0.24784847  0.79047766  0.97428818     0.13100
H1620       H  0.26665352  0.82569246  0.93932518     0.13100
H1621       H  0.16408150  0.65915019  0.85171681     0.13100
H1622       H  0.18334948  0.69479354  0.81696446     0.13100
H1623       H  0.21503479  0.72362543  0.91167481     0.26400
H1624       H  0.23324484  0.75388258  0.88055911     0.26400
N1625       N  0.03767143  0.01929374  0.63852703    -0.36400
N1626       N  0.03887870  0.02655569  0.69177275    -0.56900
N1627       N  0.47801290  0.98613250  0.69674235    -0.36400
N1628       N  0.48358156  0.97865123  0.64374387    -0.56900
C1629       C  0.05610981  0.04251172  0.64181898     0.27200
C1630       C  0.03127169  0.01771880  0.61459160     0.27200
C1631       C  0.47560360  0.99889321  0.71880827     0.27200
C1632       C  0.45043286  0.97715333  0.69036441     0.27200
C1633       C  0.06636607  0.03583693  0.68569372     0.35800
C1634       C  0.04069494  0.01838942  0.71531363     0.35800
C1635       C  0.49060245  0.97576306  0.62016166     0.35800
C1636       C  0.46104083  0.95995147  0.64826218     0.35800
C1637       C  0.06167399  0.05618092  0.61984058    -0.21600
C1638       C  0.04626801  0.04052379  0.60264319    -0.21600
C1639       C  0.44639392  0.99777181  0.72672274    -0.21600
C1640       C  0.43037994  0.98422872  0.70870068    -0.21600
C1641       C  0.08555147  0.03383671  0.70555051    -0.22700
C1642       C  0.06914824  0.02286023  0.72439417    -0.22700
C1643       C  0.47239444  0.95453704  0.60959721    -0.22700
C1644       C  0.45369497  0.94452192  0.62742927    -0.22700
C1645       C  0.07438947  0.04567228  0.66236659    -0.18100
C1646       C  0.51013187  0.99525806  0.60783068    -0.18100
C1647       C  0.44281897  0.96201298  0.66883040    -0.18000
C1648       C  0.49977692  0.00941403  0.73255500    -0.18000
H1649       H  0.07731867  0.07395533  0.61636056     0.14900
H1650       H  0.04791598  0.04480530  0.58349564     0.14900
H1651       H  0.43589382  0.49128896  0.74365458     0.14900
H1652       H  0.40664532  0.97983716  0.70922266     0.14900
H1653       H  0.10896346  0.03944414  0.70642539     0.13100
H1654       H  0.06471261  0.51202991  0.74805078     0.13100
H1655       H  0.47116913  0.94813435  0.59082924     0.13100
H1656       H  0.43538672  0.92921723  0.62495465     0.13100
H1657       H  0.03470037  0.00259820  0.65140269     0.26400
H1658       H  0.49777168  0.98121220  0.68763180     0.26400
N1659       N  0.01204832  0.73907832  0.63442611    -0.36400
N1660       N  0.01934985  0.74219911  0.68810456    -0.56900
N1661       N  0.45937194  0.77528694  0.69261432    -0.36400
N1662       N  0.45828486  0.77588569  0.63954808    -0.56900
C1663       C  0.03005835  0.71544677  0.63957349     0.27200
C1664       C  0.00177659  0.73579546  0.61149034     0.27200
C1665       C  0.46148166  0.76392687  0.71526936     0.27200
C1666       C  0.42997059  0.77840550  0.68744691     0.27200
C1667       C  0.04548835  0.72943223  0.68131796     0.35800
C1668       C  0.02388984  0.75310539  0.71062645     0.35800
C1669       C  0.46347228  0.77864514  0.61567333     0.35800
C1670       C  0.43451017  0.79353437  0.64452135     0.35800
C1671       C  0.03149737  0.69659936  0.61981590    -0.21600
C1672       C  0.01358972  0.70936051  0.60205818    -0.21600
C1673       C  0.43326519  0.75998687  0.72476089    -0.21600
C1674       C  0.41324719  0.76885847  0.70705552    -0.21600
C1675       C  0.06664137  0.73208254  0.69968733    -0.22700
C1676       C  0.05285422  0.74694935  0.71832506    -0.22700
C1677       C  0.44274473  0.79853221  0.60534419    -0.22700
C1678       C  0.42439045  0.80798240  0.62370107    -0.22700
C1679       C  0.05027954  0.71463935  0.65908881    -0.18100
C1680       C  0.48426284  0.76039240  0.60314727    -0.18100
C1681       C  0.41800716  0.79078351  0.66586602    -0.18000
C1682       C  0.48847037  0.75878116  0.72786092    -0.18000
H1683       H  0.04538893  0.67662502  0.61796827     0.14900
H1684       H  0.01075755  0.70030916  0.58417240     0.14900
H1685       H  0.42776391  0.75158098  0.74254492     0.14900
H1686       H  0.38912581  0.76864919  0.70861154     0.14900
H1687       H  0.08959117  0.72402116  0.69975046     0.13100
H1688       H  0.06296389  0.75261485  0.73548754     0.13100
H1689       H  0.43993274  0.80455164  0.58650833     0.13100
H1690       H  0.40470271  0.82230965  0.62173829     0.13100
H1691       H  0.01180342  0.75865188  0.64455342     0.26400
H1692       H  0.47695911  0.78314579  0.68217382     0.26400
N1693       N  0.23595342  0.01715935  0.64136147    -0.36400
N1694       N  0.27930949  0.97198917  0.64312388    -0.56900
N1695       N  0.27753845  0.97222627  0.69684412    -0.36400
N1696       N  0.23249603  0.01902054  0.69482325    -0.56900
C1697       C  0.24357838  0.01755367  0.61770839     0.27200
C1698       C  0.21897323  0.04173973  0.64549821     0.27200
C1699       C  0.30582035  0.96269218  0.69262442     0.27200
C1700       C  0.27674117  0.47352040  0.72303773     0.27200
C1701       C  0.27577904  0.97178247  0.61888908     0.35800
C1702       C  0.30016224  0.95105863  0.64881468     0.35800
C1703       C  0.20634776  0.03245615  0.68847569     0.35800
C1704       C  0.22728512  0.49759293  0.72313926     0.35800
C1705       C  0.23089784  0.04301055  0.60679096    -0.21600
C1706       C  0.21548717  0.05820520  0.62436784    -0.21600
C1707       C  0.32299257  0.45960212  0.71414560    -0.21600
C1708       C  0.30510434  0.46944589  0.73275305    -0.21600
C1709       C  0.29449760  0.94995248  0.60904701    -0.22700
C1710       C  0.30994790  0.93693047  0.62801535    -0.22700
C1711       C  0.18243043  0.51593370  0.71437510    -0.22700
C1712       C  0.19885314  0.50177285  0.73229011    -0.22700
C1713       C  0.25945889  0.99414140  0.60577137    -0.18100
C1714       C  0.19989611  0.04457036  0.66534935    -0.18100
C1715       C  0.25157176  0.48431314  0.73562379    -0.18000
C1716       C  0.31674195  0.95160440  0.67043962    -0.18000
H1717       H  0.23100175  0.04972274  0.58803831     0.14900
H1718       H  0.20129864  0.07787410  0.62156225     0.14900
H1719       H  0.34676749  0.45486535  0.71554190     0.14900
H1720       H  0.31230017  0.47399107  0.75106088     0.14900
H1721       H  0.29884053  0.94543677  0.59023472     0.13100
H1722       H  0.32831651  0.92090689  0.62652463     0.13100
H1723       H  0.15897294  0.52210167  0.71544772     0.13100
H1724       H  0.19072193  0.49478693  0.74978280     0.13100
H1725       H  0.23687850  0.99881554  0.65300393     0.26400
H1726       H  0.25934082  0.97090391  0.68506538     0.26400
N1727       N  0.20992830  0.72131423  0.63872877    -0.36400
N1728       N  0.25279102  0.76511921  0.64054261    -0.56900
N1729       N  0.25495361  0.75907721  0.69386856    -0.36400
N1730       N  0.20934663  0.71422321  0.69197214    -0.56900
C1731       C  0.21708691  0.72183804  0.61497914     0.27200
C1732       C  0.19368439  0.69669850  0.64288036     0.27200
C1733       C  0.28271452  0.76851626  0.68872279     0.27200
C1734       C  0.25620912  0.74676211  0.71628469     0.27200
C1735       C  0.24732654  0.76779011  0.61661302     0.35800
C1736       C  0.27304001  0.78574787  0.64643413     0.35800
C1737       C  0.18193337  0.70461495  0.68581005     0.35800
C1738       C  0.20746742  0.72309219  0.71520736     0.35800
C1739       C  0.20497815  0.69673060  0.60399307    -0.21600
C1740       C  0.19022840  0.68102486  0.62161791    -0.21600
C1741       C  0.30168302  0.76232819  0.70825255    -0.21600
C1742       C  0.28472661  0.74901592  0.72583661    -0.21600
C1743       C  0.26396998  0.79118643  0.60725728    -0.22700
C1744       C  0.28017745  0.80253728  0.62618453    -0.22700
C1745       C  0.16273071  0.70709665  0.70537251    -0.22700
C1746       C  0.17921806  0.71826348  0.72422182    -0.22700
C1747       C  0.23160936  0.74604742  0.60314954    -0.18100
C1748       C  0.17421423  0.69438934  0.66252400    -0.18100
C1749       C  0.23172254  0.73435973  0.72830341    -0.18000
C1750       C  0.29127724  0.78302710  0.66711041    -0.18000
H1751       H  0.20478480  0.69071454  0.58516096     0.14900
H1752       H  0.17624804  0.66175005  0.61875173     0.14900
H1753       H  0.32529375  0.76702367  0.70980051     0.14900
H1754       H  0.29257951  0.74126130  0.74337915     0.14900
H1755       H  0.26661216  0.79798210  0.58865173     0.13100
H1756       H  0.29747563  0.81915926  0.62475885     0.13100
H1757       H  0.13932576  0.70151585  0.70611563     0.13100
H1758       H  0.17121206  0.72307611  0.74221359     0.13100
H1759       H  0.21037471  0.73936691  0.65055385     0.26400
H1760       H  0.23571301  0.76263443  0.68339701     0.26400
C1761       C  0.37154920  0.76965257  0.65096229    -0.26100
C1762       C  0.38534263  0.79277970  0.66352597    -0.14100
C1763       C  0.36803632  0.81464005  0.67558493     0.36500
C1764       C  0.33691596  0.81240870  0.67540930    -0.25500
C1765       C  0.32330314  0.78830364  0.66377876    -0.14800
C1766       C  0.34078865  0.76697640  0.65113924     0.37600
N1767       N  0.32807621  0.74143850  0.63953709    -0.89000
H1768       H  0.38498577  0.75263987  0.64198548     0.18700
H1769       H  0.32342781  0.82855344  0.68526299     0.18700
N1770       N  0.38160797  0.83861202  0.68852423    -0.88000
H1771       H  0.31390943  0.74883498  0.62550079     0.36100
H1772       H  0.31565343  0.72949036  0.65210840     0.41100
H1773       H  0.39510428  0.85040267  0.67653285     0.40800
H1774       H  0.39527318  0.82953667  0.70221174     0.35700
C1775       C  0.09190541  0.67756596  0.66426288    -0.26100
C1776       C  0.08082331  0.70431746  0.65388924    -0.14100
C1777       C  0.10027254  0.72407923  0.64205304     0.36500
C1778       C  0.13075386  0.71861799  0.64340082    -0.25500
C1779       C  0.14223334  0.69369098  0.65616823    -0.14800
C1780       C  0.12271472  0.67192681  0.66522956     0.37600
N1781       N  0.13369530  0.64467968  0.67605767    -0.89000
H1782       H  0.07678667  0.66213466  0.67289444     0.18700
H1783       H  0.14567146  0.73521271  0.63599604     0.18700
N1784       N  0.08982989  0.75098554  0.63013401    -0.88000
H1785       H  0.14746701  0.64991634  0.69067500     0.36100
H1786       H  0.14673087  0.63349929  0.66321902     0.41100
H1787       H  0.07797355  0.76418067  0.64246088     0.40800
H1788       H  0.07546183  0.74511468  0.61603302     0.35700
C1789       C  0.35948976  0.46857753  0.65446156    -0.26100
C1790       C  0.34929882  0.95068977  0.66748790    -0.14100
C1791       C  0.36758959  0.92695167  0.67623279     0.36500
C1792       C  0.39865716  0.92969329  0.67525347    -0.25500
C1793       C  0.41107575  0.95567898  0.66537165    -0.14800
C1794       C  0.39031517  0.47033441  0.65257745     0.37600
N1795       N  0.40326440  0.49630351  0.64170812    -0.93800
H1796       H  0.34560337  0.48692116  0.64751008     0.18700
H1797       H  0.41305099  0.91230059  0.68302249     0.18700
N1798       N  0.35509322  0.90044379  0.68647291    -0.88000
H1799       H  0.39580493  0.51523903  0.65110395     0.36100
H1800       H  0.39534257  0.49805730  0.62392399     0.41100
H1801       H  0.34116932  0.89086391  0.67348597     0.40800
H1802       H  0.34197383  0.90647439  0.70126303     0.35700
C1803       C  0.11638152  0.56857382  0.67912710    -0.26100
C1804       C  0.10632452  0.05003798  0.65777804    -0.14100
C1805       C  0.12267369  0.02646119  0.64688772     0.36500
C1806       C  0.15366292  0.02712837  0.64742874    -0.25500
C1807       C  0.16836906  0.05022587  0.65930182    -0.14800
C1808       C  0.14767214  0.56614041  0.68127467     0.37600
N1809       N  0.16393351  0.58475017  0.69768413    -0.89000
H1810       H  0.10418781  0.58513973  0.68957766     0.18700
H1811       H  0.16644049  0.00819693  0.64050557     0.18700
N1812       N  0.10775954  0.00092805  0.63691092    -0.88000
H1813       H  0.14934940  0.59924074  0.70679443     0.36100
H1814       H  0.17842002  0.59787713  0.68750984     0.41100
H1815       H  0.09777154  0.98939971  0.65116072     0.40800
H1816       H  0.12315471  0.98597027  0.62918700     0.35700
C1817       C  0.23601438  0.70560186  0.79333756    -0.26100
C1818       C  0.23164658  0.73229540  0.80628388    -0.14100
C1819       C  0.22730464  0.75954788  0.79342997     0.36500
C1820       C  0.22789469  0.75953024  0.76803351    -0.25500
C1821       C  0.23182242  0.73277908  0.75515482    -0.14800
C1822       C  0.23586422  0.70537916  0.76800114     0.37600
N1823       N  0.24007945  0.67702512  0.75611940    -0.89000
H1824       H  0.23967700  0.68465434  0.80305713     0.18700
H1825       H  0.22483138  0.78044538  0.75814814     0.18700
N1826       N  0.22231579  0.78710649  0.80624953    -0.88000
H1827       H  0.26123323  0.66860099  0.76106054     0.36100
H1828       H  0.24024539  0.67933671  0.73736271     0.41100
H1829       H  0.20205284  0.78533153  0.81540338     0.40800
H1830       H  0.21982896  0.80514730  0.79417521     0.35700
C1831       C  0.26210195  0.84243941  0.87654861    -0.26100
C1832       C  0.28230193  0.82574447  0.89091864    -0.14100
C1833       C  0.30515475  0.84032830  0.90361895     0.36500
C1834       C  0.30609705  0.87173824  0.90313369    -0.25500
C1835       C  0.28412092  0.88846792  0.89048755    -0.14800
C1836       C  0.26260930  0.87370997  0.87625075     0.37600
N1837       N  0.23984453  0.89049194  0.86319402    -0.89000
H1838       H  0.24457212  0.83102893  0.86677487     0.18700
H1839       H  0.32254786  0.88313541  0.91405395     0.18700
N1840       N  0.32622888  0.82339703  0.91803969    -0.88000
H1841       H  0.22413842  0.87609716  0.85563610     0.36100
H1842       H  0.25010895  0.90100794  0.84860239     0.41100
H1843       H  0.32447972  0.83071325  0.93589470     0.40800
H1844       H  0.34770668  0.82833603  0.91201426     0.35700
C1845       C  0.21167790  0.58488218  0.88564050    -0.26100
C1846       C  0.18552597  0.57207062  0.89448540    -0.14100
C1847       C  0.16142022  0.59071471  0.90188848     0.36500
C1848       C  0.16484817  0.62194839  0.90115018    -0.25500
C1849       C  0.19182136  0.63447421  0.89347616    -0.14800
C1850       C  0.21549892  0.61565935  0.88551227     0.37600
N1851       N  0.24422235  0.62667113  0.87825711    -0.89000
H1852       H  0.23034143  0.57058878  0.88028653     0.18700
H1853       H  0.14691827  0.63647714  0.90749162     0.18700
N1854       N  0.13407870  0.57882413  0.91117799    -0.88000
H1855       H  0.26020457  0.61825189  0.89057518     0.36100
H1856       H  0.24547368  0.64992935  0.87904185     0.41100
H1857       H  0.13430441  0.55541945  0.91059251     0.40800
H1858       H  0.11668341  0.58609521  0.89971324     0.35700
C1859       C  0.24283235  0.96674321  0.79592907    -0.26100
C1860       C  0.24577420  0.48382578  0.81338090    -0.14100
C1861       C  0.25579527  0.50940278  0.80091731     0.36500
C1862       C  0.25817014  0.50867935  0.77557822    -0.25500
C1863       C  0.25080994  0.48289965  0.76250712    -0.14800
C1864       C  0.24361461  0.96655536  0.77066815     0.37600
N1865       N  0.23814385  0.93867204  0.75859866    -0.89000
H1866       H  0.23792402  0.94613951  0.80552222     0.18700
H1867       H  0.26556751  0.52838164  0.76588864     0.18700
N1868       N  0.26408595  0.53572694  0.81408129    -0.88000
H1869       H  0.21639523  0.93223462  0.76283001     0.36100
H1870       H  0.23871670  0.94098027  0.73986414     0.41100
H1871       H  0.24476330  0.54468219  0.82197420     0.40800
H1872       H  0.27190995  0.55219950  0.80229646     0.35700
C1873       C  0.47919202  0.78307215  0.79309212    -0.26100
C1874       C  0.48529657  0.75611711  0.80557131    -0.14100
C1875       C  0.01381981  0.74214017  0.79015628     0.36500
C1876       C  0.01149096  0.74200257  0.76480183    -0.25500
C1877       C  0.48821567  0.75853028  0.75470451    -0.14800
C1878       C  0.48081011  0.78460992  0.76791799     0.37600
N1879       N  0.47561848  0.81308110  0.75629714    -0.89000
H1880       H  0.47340805  0.80315615  0.80307795     0.18700
H1881       H  0.01562946  0.72118134  0.75531458     0.18700
N1882       N  0.02321347  0.71543957  0.80281300    -0.88000
H1883       H  0.45695929  0.81169202  0.74491774     0.36100
H1884       H  0.49429047  0.81806096  0.74584148     0.41100
H1885       H  0.04434969  0.70909744  0.79647803     0.40800
H1886       H  0.00829439  0.69842364  0.79853160     0.35700
C1887       C  0.08470108  0.87359002  0.89970071    -0.26100
C1888       C  0.53436996  0.84976759  0.89191833    -0.14100
C1889       C  0.51336151  0.86943256  0.88100130     0.36500
C1890       C  0.51814862  0.90012221  0.88146569    -0.25500
C1891       C  0.54309314  0.91176379  0.89343779    -0.14800
C1892       C  0.08583761  0.90501491  0.90052164     0.37600
N1893       N  0.11110000  0.91884314  0.91161569    -0.89000
H1894       H  0.10241080  0.86018916  0.90809987     0.18700
H1895       H  0.50107096  0.91514323  0.87396469     0.18700
N1896       N  0.48611500  0.85833514  0.87086716    -0.88000
H1897       H  0.10364332  0.93181219  0.92610668     0.36100
H1898       H  0.12061668  0.93319236  0.89891606     0.41100
H1899       H  0.48479626  0.86523360  0.85279757     0.40800
H1900       H  0.46816467  0.86821026  0.88006743     0.35700
C1901       C  0.41757268  0.64404030  0.89933244    -0.26100
C1902       C  0.44301101  0.65869641  0.89071666    -0.14100
C1903       C  0.98888420  0.65328884  0.88081839     0.36500
C1904       C  0.98754808  0.62239049  0.88335448    -0.25500
C1905       C  0.44244825  0.59584567  0.89322636    -0.14800
C1906       C  0.41701537  0.61257313  0.90047645     0.37600
N1907       N  0.39083006  0.59818579  0.90930221    -0.89000
H1908       H  0.39872769  0.65707457  0.90598958     0.18700
H1909       H  0.00661691  0.60874636  0.87787755     0.18700
N1910       N  0.01548434  0.66575097  0.87082285    -0.88000
H1911       H  0.39677939  0.58526454  0.92445693     0.36100
H1912       H  0.38318422  0.58372298  0.89588963     0.41100
H1913       H  0.02509983  0.68002522  0.88352341     0.40800
H1914       H  0.00962159  0.67821969  0.85542236     0.35700
C1915       C  0.49233540  0.98224453  0.77144083    -0.26100
C1916       C  0.49769864  0.00942716  0.75938065    -0.14100
C1917       C  0.00865971  0.53785118  0.77190087     0.36500
C1918       C  0.01056711  0.53782121  0.79715710    -0.25500
C1919       C  0.49696400  0.00680127  0.81029132    -0.14800
C1920       C  0.49112278  0.98082889  0.79664714     0.37600
N1921       N  0.48262321  0.95317118  0.80781032    -0.89000
H1922       H  0.48882350  0.96200115  0.76113578     0.18700
H1923       H  0.01539030  0.55857027  0.80639481     0.18700
N1924       N  0.01083686  0.56603105  0.75946217    -0.88000
H1925       H  0.49999616  0.94516890  0.81891116     0.36100
H1926       H  0.46386265  0.95736068  0.81850988     0.41100
H1927       H  0.99174066  0.56913059  0.74863446     0.40800
H1928       H  0.02965870  0.56579964  0.74846692     0.35700
C1929       C  0.27093836  0.83746640  0.03415709    -0.26100
C1930       C  0.24380566  0.82209497  0.03089792    -0.14100
C1931       C  0.21737069  0.83998905  0.02777746     0.36500
C1932       C  0.21867102  0.87181395  0.02831352    -0.25500
C1933       C  0.24569318  0.88717132  0.03170719    -0.14800
C1934       C  0.27210017  0.86935965  0.03463170     0.37600
N1935       N  0.30028973  0.88342605  0.03844274    -0.89000
H1936       H  0.29156880  0.82465614  0.03660533     0.18700
H1937       H  0.19814194  0.88477783  0.02587879     0.18700
N1938       N  0.18900310  0.82595152  0.02404305    -0.88000
H1939       H  0.31480467  0.87647181  0.02478014     0.36100
H1940       H  0.30909926  0.87575662  0.05496129     0.41100
H1941       H  0.18962645  0.81568979  0.00712305     0.40800
H1942       H  0.17167165  0.84198384  0.02316988     0.35700
C1943       C  0.21248777  0.62305059  0.03862397    -0.26100
C1944       C  0.23882106  0.63727054  0.03104386    -0.14100
C1945       C  0.26334441  0.61851201  0.02435769     0.36500
C1946       C  0.26123550  0.58676862  0.02614916    -0.25500
C1947       C  0.23509428  0.57254657  0.03421428    -0.14800
C1948       C  0.21039740  0.59132007  0.04048151     0.37600
N1949       N  0.18327408  0.57829301  0.04914274    -0.89000
H1950       H  0.19342420  0.63685414  0.04374691     0.18700
H1951       H  0.28027179  0.57297586  0.02094604     0.18700
N1952       N  0.29037247  0.63159618  0.01554558    -0.88000
H1953       H  0.16704651  0.59493315  0.05235660     0.36100
H1954       H  0.18813893  0.56824184  0.06587381     0.41100
H1955       H  0.28523248  0.64213325  0.99905683     0.40800
H1956       H  0.30642610  0.61494798  0.01185185     0.35700
C1957       C  0.98890958  0.90577160  0.03408104    -0.26100
C1958       C  0.01576076  0.92098781  0.02950056    -0.14100
C1959       C  0.04140661  0.90303772  0.02435232     0.36500
C1960       C  0.03975370  0.87119969  0.02403369    -0.25500
C1961       C  0.01286850  0.85600761  0.02863137    -0.14800
C1962       C  0.98726464  0.87398231  0.03380225     0.37600
N1963       N  0.43418665  0.85157040  0.02672250    -0.89000
H1964       H  0.44414029  0.91000957  0.02867464     0.18700
H1965       H  0.05980933  0.85827930  0.01994214     0.18700
N1966       N  0.06927666  0.91691861  0.01906000    -0.88000
H1967       H  0.42495207  0.85963490  0.01047449     0.36100
H1968       H  0.42032692  0.85866495  0.04077712     0.41100
H1969       H  0.07591691  0.91014611  0.00183579     0.40800
H1970       H  0.08525885  0.90889399  0.03150723     0.35700
C1971       C  0.03680730  0.62124055  0.03519173    -0.26100
C1972       C  0.00958099  0.60568676  0.03382597    -0.14100
C1973       C  0.98303910  0.62344606  0.03133796     0.36500
C1974       C  0.98422669  0.65529434  0.03009963    -0.25500
C1975       C  0.01145813  0.67083718  0.03127926    -0.14800
C1976       C  0.03799237  0.65309297  0.03405487     0.37600
N1977       N  0.06646538  0.66718462  0.03586038    -0.89000
H1978       H  0.05760448  0.60859777  0.03720411     0.18700
H1979       H  0.44218394  0.65687869  0.03148321     0.18700
N1980       N  0.43540598  0.59787920  0.03195314    -0.88000
H1981       H  0.07997070  0.65909005  0.02192287     0.36100
H1982       H  0.07637454  0.66069892  0.05229667     0.41100
H1983       H  0.42339395  0.60443648  0.01644665     0.40800
H1984       H  0.42338226  0.60511334  0.04700796     0.35700
C1985       C  0.37561304  0.72768200  0.53174672    -0.26100
C1986       C  0.39032261  0.75550987  0.53070828    -0.14100
C1987       C  0.37171777  0.78164158  0.52991753     0.36500
C1988       C  0.33997734  0.77954632  0.53004995    -0.25500
C1989       C  0.32522868  0.75177923  0.53098062    -0.14800
C1990       C  0.34379603  0.72559908  0.53194765     0.37600
N1991       N  0.33059325  0.69661553  0.53338824    -0.89000
H1992       H  0.38889675  0.70713781  0.53252413     0.18700
H1993       H  0.32674969  0.80012439  0.52929515     0.18700
N1994       N  0.38482540  0.81069116  0.52885691    -0.88000
H1995       H  0.33847371  0.68601885  0.54916490     0.36100
H1996       H  0.33800658  0.68404034  0.51866047     0.41100
H1997       H  0.37737022  0.82295227  0.54374532     0.40800
H1998       H  0.37697820  0.82156259  0.51319585     0.35700
C1999       C  0.09010449  0.72835883  0.52525891    -0.26100
C2000       C  0.07471356  0.75633679  0.52619381    -0.14100
C2001       C  0.09260299  0.78225532  0.52841013     0.36500
C2002       C  0.12439988  0.77961254  0.52953337    -0.25500
C2003       C  0.13983806  0.75172641  0.52852601    -0.14800
C2004       C  0.12198698  0.72571542  0.52653905     0.37600
N2005       N  0.13609071  0.69653062  0.52571841    -0.89000
H2006       H  0.07712998  0.70815359  0.52370147     0.18700
H2007       H  0.13730339  0.79985004  0.53115701     0.18700
N2008       N  0.07858755  0.81143991  0.52979466    -0.88000
H2009       H  0.12014108  0.67992401  0.52322722     0.36100
H2010       H  0.14586830  0.69236630  0.54266140     0.41100
H2011       H  0.06904310  0.81623484  0.51288045     0.40800
H2012       H  0.09453380  0.82792284  0.53282140     0.35700
C2013       C  0.40321537  0.96811590  0.53924328    -0.26100
C2014       C  0.41831274  0.99523121  0.53500361    -0.14100
C2015       C  0.39523133  0.52772070  0.53463612     0.36500
C2016       C  0.36346316  0.52655552  0.53582328    -0.25500
C2017       C  0.35342230  0.99239022  0.53463260    -0.14800
C2018       C  0.37147709  0.96649950  0.53922639     0.37600
N2019       N  0.35780826  0.93829861  0.54406052    -0.89000
H2020       H  0.41614955  0.94775234  0.54273571     0.18700
H2021       H  0.35070997  0.54739882  0.53662237     0.18700
N2022       N  0.40958015  0.55633612  0.53432016    -0.88000
H2023       H  0.36509702  0.93078730  0.56108125     0.36100
H2024       H  0.36539344  0.92290925  0.53121994     0.41100
H2025       H  0.42131567  0.55835667  0.55061361     0.40800
H2026       H  0.39367878  0.57382730  0.53392404     0.35700
C2027       C  0.11389671  0.52835273  0.53206770    -0.26100
C2028       C  0.10359579  0.99285721  0.53023186    -0.14100
C2029       C  0.12094400  0.96642697  0.52603539     0.36500
C2030       C  0.15276563  0.96690657  0.52672156    -0.25500
C2031       C  0.16869502  0.99337265  0.53126670    -0.14800
C2032       C  0.14578046  0.52891994  0.53183501     0.37600
N2033       N  0.16032164  0.55710170  0.52915406    -0.89000
H2034       H  0.10152581  0.54941211  0.53068427     0.18700
H2035       H  0.16508827  0.94621153  0.52345853     0.18700
N2036       N  0.10645703  0.93882176  0.52072917    -0.88000
H2037       H  0.15350231  0.57099893  0.54328479     0.36100
H2038       H  0.15296819  0.56694341  0.51291168     0.41100
H2039       H  0.11330925  0.92289141  0.53365690     0.40800
H2040       H  0.11381722  0.93149414  0.50384284     0.35700
C2041       C  0.36889215  0.82708045  0.39817961    -0.26100
C2042       C  0.38484934  0.80135811  0.39080802    -0.14100
C2043       C  0.36944643  0.77670734  0.38140266     0.36500
C2044       C  0.33841780  0.77733898  0.38069763    -0.25500
C2045       C  0.32231371  0.80202829  0.38951683    -0.14800
C2046       C  0.33742797  0.82752867  0.39753638     0.37600
N2047       N  0.32082654  0.85318801  0.40570889    -0.89000
H2048       H  0.38073362  0.84610264  0.40525261     0.18700
H2049       H  0.32675202  0.75762316  0.37455883     0.18700
N2050       N  0.38535604  0.75031413  0.37366606    -0.88000
H2051       H  0.32671691  0.87150568  0.39499169     0.36100
H2052       H  0.32729559  0.85750796  0.42351610     0.41100
H2053       H  0.37977248  0.74649916  0.35558197     0.40800
H2054       H  0.37809773  0.73209027  0.38392370     0.35700
C2055       C  0.08901317  0.69150949  0.39849990    -0.26100
C2056       C  0.07799504  0.71901107  0.38940092    -0.14100
C2057       C  0.09766976  0.74053790  0.38043131     0.36500
C2058       C  0.12821402  0.73457604  0.38097263    -0.25500
C2059       C  0.13956602  0.70789065  0.39119423    -0.14800
C2060       C  0.12002191  0.68584405  0.39975754     0.37600
N2061       N  0.13169480  0.65839243  0.41006393    -0.89000
H2062       H  0.07351492  0.67517817  0.40542644     0.18700
H2063       H  0.14334937  0.75173265  0.37479076     0.18700
N2064       N  0.08663235  0.76908794  0.37185021    -0.88000
H2065       H  0.11414382  0.64476431  0.41553624     0.36100
H2066       H  0.14363768  0.66367166  0.42571368     0.41100
H2067       H  0.09363563  0.77187452  0.35401218     0.40800
H2068       H  0.09640537  0.78580913  0.38229503     0.35700
C2069       C  0.39234201  0.47431556  0.37953438    -0.26100
C2070       C  0.41016074  0.45487487  0.39363615    -0.14100
C2071       C  0.40431115  0.92125061  0.40746102     0.36500
C2072       C  0.37316747  0.91775215  0.40681577    -0.25500
C2073       C  0.35486074  0.93865522  0.39427492    -0.14800
C2074       C  0.36128811  0.47311817  0.38047255     0.37600
N2075       N  0.34335761  0.49478236  0.36715960    -0.89000
H2076       H  0.40271696  0.49204193  0.36921355     0.18700
H2077       H  0.36319147  0.90033467  0.41764827     0.18700
N2078       N  0.42296807  0.90100847  0.42128545    -0.88000
H2079       H  0.35674661  0.50822327  0.35625797     0.36100
H2080       H  0.33314763  0.50907548  0.37963642     0.41100
H2081       H  0.42035918  0.87945111  0.41438181     0.40800
H2082       H  0.41539430  0.90099494  0.43910794     0.35700
C2083       C  0.15266296  0.01263968  0.38560044    -0.26100
C2084       C  0.16927092  0.03750025  0.39244586    -0.14100
C2085       C  0.14480660  0.57357959  0.40717438     0.36500
C2086       C  0.11339874  0.57381343  0.40653720    -0.25500
C2087       C  0.09796886  0.55028508  0.39561231    -0.14800
C2088       C  0.12165703  0.01365748  0.38638267     0.37600
N2089       N  0.10500430  0.98752472  0.38029546    -0.89000
H2090       H  0.16394990  0.99183705  0.38072118     0.18700
H2091       H  0.10097714  0.59148901  0.41555222     0.18700
N2092       N  0.15983032  0.59777713  0.41891104    -0.88000
H2093       H  0.11203010  0.96997732  0.39173027     0.36100
H2094       H  0.11025640  0.98159398  0.36256202     0.41100
H2095       H  0.18302793  0.59548183  0.41766530     0.40800
H2096       H  0.15447625  0.59697005  0.43726744     0.35700
C2097       C  0.21184608  0.74981703  0.26675682    -0.26100
C2098       C  0.23772387  0.73824017  0.25583658    -0.14100
C2099       C  0.26214551  0.72838882  0.27048102     0.36500
C2100       C  0.26000674  0.73066395  0.29565812    -0.25500
C2101       C  0.23415563  0.74238311  0.30658678    -0.14800
C2102       C  0.20976639  0.75227673  0.29191043     0.37600
N2103       N  0.18270965  0.76496413  0.30175521    -0.89000
H2104       H  0.19315520  0.75734871  0.25554548     0.18700
H2105       H  0.27872700  0.72317753  0.30685935     0.18700
N2106       N  0.28932143  0.71607353  0.26056115    -0.88000
H2107       H  0.18075516  0.78710791  0.29549097     0.36100
H2108       H  0.18356376  0.76609399  0.32054866     0.41100
H2109       H  0.28857646  0.71548484  0.24173403     0.40800
H2110       H  0.29134023  0.69379333  0.26647383     0.35700
C2111       C  0.31888886  0.83585663  0.17155179    -0.26100
C2112       C  0.29378327  0.82345577  0.16023514    -0.14100
C2113       C  0.27295334  0.84237357  0.14801423     0.36500
C2114       C  0.27665773  0.87314810  0.14845600    -0.25500
C2115       C  0.30008192  0.88588693  0.16161281    -0.14800
C2116       C  0.32219506  0.86709326  0.17257775     0.37600
N2117       N  0.34730202  0.87888379  0.18558861    -0.89000
H2118       H  0.33476418  0.82130719  0.18105137     0.18700
H2119       H  0.25948910  0.88741261  0.14017785     0.18700
N2120       N  0.24639803  0.83117277  0.13678963    -0.88000
H2121       H  0.34519858  0.87282911  0.20376143     0.36100
H2122       H  0.34754208  0.90228389  0.18468015     0.41100
H2123       H  0.23422256  0.81929033  0.14964464     0.40800
H2124       H  0.25255117  0.81669608  0.12286890     0.35700
C2125       C  0.21568648  0.59288109  0.15305948    -0.26100
C2126       C  0.19417778  0.57775224  0.16639047    -0.14100
C2127       C  0.17032277  0.59357917  0.17712761     0.36500
C2128       C  0.16977259  0.62509130  0.17579965    -0.25500
C2129       C  0.19309757  0.64030422  0.16437978    -0.14800
C2130       C  0.21578868  0.62402581  0.15227198     0.37600
N2131       N  0.23974123  0.63923310  0.14030430    -0.89000
H2132       H  0.23382676  0.58027280  0.14478374     0.18700
H2133       H  0.15232944  0.63781463  0.18482879     0.18700
N2134       N  0.14788107  0.57766529  0.19022218    -0.88000
H2135       H  0.25418774  0.62390304  0.13189864     0.36100
H2136       H  0.25236918  0.65002700  0.15350964     0.41100
H2137       H  0.13642817  0.56436379  0.17783882     0.40800
H2138       H  0.13212920  0.59270276  0.19735318     0.35700
C2139       C  0.23324393  0.96720615  0.27155906    -0.26100
C2140       C  0.25694701  0.97829395  0.25785602    -0.14100
C2141       C  0.27845102  0.50203305  0.27453951     0.36500
C2142       C  0.27712922  0.50311104  0.29982046    -0.25500
C2143       C  0.25913999  0.98010592  0.30886332    -0.14800
C2144       C  0.23419830  0.96780218  0.29686744     0.37600
N2145       N  0.20974387  0.95549432  0.31000529    -0.89000
H2146       H  0.21391510  0.95800532  0.26249543     0.18700
H2147       H  0.29595064  0.51177938  0.30989794     0.18700
N2148       N  0.30497658  0.51195561  0.26277001    -0.88000
H2149       H  0.20023555  0.97233124  0.32066068     0.36100
H2150       H  0.21819310  0.93853182  0.32142071     0.41100
H2151       H  0.29908073  0.52937044  0.25083370     0.40800
H2152       H  0.31371772  0.49411574  0.25272112     0.35700
C2153       C  0.45828632  0.72899067  0.26729465    -0.26100
C2154       C  0.47638942  0.74982489  0.25544822    -0.14100
C2155       C  0.00717229  0.78717481  0.26505800     0.36500
C2156       C  0.00370647  0.78844805  0.29012527    -0.25500
C2157       C  0.47467135  0.74769732  0.30634768    -0.14800
C2158       C  0.45704786  0.72804087  0.29268278     0.37600
N2159       N  0.43779028  0.70734827  0.30454726    -0.89000
H2160       H  0.44509879  0.71352267  0.25680067     0.18700
H2161       H  0.01732205  0.80357219  0.30059388     0.18700
N2162       N  0.02788736  0.80687939  0.25371147    -0.88000
H2163       H  0.41588368  0.71173510  0.29856010     0.36100
H2164       H  0.44384146  0.68567978  0.29911858     0.41100
H2165       H  0.01614704  0.82010969  0.24103475     0.40800
H2166       H  0.04374797  0.79385889  0.24454066     0.35700
C2167       C  0.42132997  0.89747995  0.16215845    -0.26100
C2168       C  0.44755799  0.90891117  0.17257381    -0.14100
C2169       C  0.98062244  0.90231287  0.17966828     0.36500
C2170       C  0.97721387  0.87154844  0.17836879    -0.25500
C2171       C  0.44015480  0.84683507  0.16944227    -0.14800
C2172       C  0.41775975  0.86626573  0.16001702     0.37600
N2173       N  0.39288314  0.85422108  0.14694253    -0.89000
H2174       H  0.40486409  0.91283006  0.15427341     0.18700
H2175       H  0.99372183  0.85698257  0.18717307     0.18700
N2176       N  0.00608202  0.91409579  0.19210500    -0.88000
H2177       H  0.37825566  0.87147047  0.14124013     0.36100
H2178       H  0.38113597  0.84053359  0.15880042     0.41100
H2179       H  0.02545082  0.90504843  0.18430762     0.40800
H2180       H  0.00539181  0.90689291  0.21009687     0.35700
C2181       C  0.51288464  0.64132077  0.17879078    -0.26100
C2182       C  0.53704170  0.65897864  0.17207820    -0.14100
C2183       C  0.07172435  0.65182396  0.16581033     0.36500
C2184       C  0.07313834  0.62046511  0.16785325    -0.25500
C2185       C  0.54249427  0.59641480  0.17208497    -0.14800
C2186       C  0.51529512  0.61035591  0.17892320     0.37600
N2187       N  0.48936435  0.59352894  0.18518106    -0.89000
H2188       H  0.49150403  0.65179720  0.18307881     0.18700
H2189       H  0.09317759  0.60842873  0.16231688     0.18700
N2190       N  0.09743755  0.66750562  0.15754080    -0.88000
H2191       H  0.49463392  0.57982682  0.20004977     0.36100
H2192       H  0.48340812  0.58002028  0.17062142     0.41100
H2193       H  0.10336314  0.68303411  0.17074265     0.40800
H2194       H  0.09160226  0.67930687  0.14178166     0.35700
C2195       C  0.03125408  0.49010163  0.29892262    -0.26100
C2196       C  0.50669703  0.50271453  0.30849650    -0.14100
C2197       C  0.48977556  0.52354625  0.29473718     0.36500
C2198       C  0.49123998  0.52293434  0.26948680    -0.25500
C2199       C  0.50938680  0.50170238  0.25773640    -0.14800
C2200       C  0.02636069  0.98326611  0.26844684     0.37600
N2201       N  0.04084351  0.95876865  0.25636889    -0.89000
H2202       H  0.03688644  0.96506332  0.30361002     0.18700
H2203       H  0.47784978  0.53883225  0.25895030     0.18700
N2204       N  0.47106345  0.54529771  0.30646528    -0.88000
H2205       H  0.05766228  0.96737420  0.24542576     0.36100
H2206       H  0.02507486  0.94845993  0.24527456     0.41100
H2207       H  0.47798738  0.56663139  0.30118543     0.40800
H2208       H  0.44912135  0.54256897  0.30028084     0.35700
N2209       N  0.51740272  0.02745152  0.14147079    -0.36400
N2210       N  0.47650176  0.47842720  0.14349356    -0.56900
N2211       N  0.99185243  0.48019689  0.19527634    -0.36400
N2212       N  0.03693921  0.03156402  0.19370636    -0.56900
C2213       C  0.50647473  0.02835136  0.11859275     0.27200
C2214       C  0.52716000  0.05527032  0.14659194     0.27200
C2215       C  0.96932388  0.46151571  0.19008485     0.27200
C2216       C  0.99050681  0.48617483  0.21920734     0.27200
C2217       C  0.48318668  0.47817909  0.11967520     0.35800
C2218       C  0.46559832  0.45102704  0.14875239     0.35800
C2219       C  0.05768782  0.05260860  0.19044206     0.35800
C2220       C  0.03618110  0.02548717  0.21759633     0.35800
C2221       C  0.51052174  0.05655256  0.10863584    -0.21600
C2222       C  0.52313765  0.07370987  0.12642527    -0.21600
C2223       C  0.95342212  0.45534192  0.21085449    -0.21600
C2224       C  0.96674561  0.47093611  0.22926685    -0.21600
C2225       C  0.47586079  0.45091546  0.10961747    -0.22700
C2226       C  0.46506806  0.43354569  0.12809033    -0.22700
C2227       C  0.07059144  0.05984539  0.21248832    -0.22700
C2228       C  0.05729421  0.04223169  0.22970032    -0.22700
C2229       C  0.49541635  0.50253783  0.10692081    -0.18100
C2230       C  0.53907371  0.06481196  0.16901167    -0.18100
C2231       C  0.01379032  0.00836165  0.22864012    -0.18000
C2232       C  0.96722353  0.44489669  0.16864397    -0.18000
H2233       H  0.50415364  0.06422217  0.09069163     0.14900
H2234       H  0.52863275  0.09716585  0.12464861     0.14900
H2235       H  0.93508801  0.43994639  0.21269002     0.14900
H2236       H  0.96021339  0.47015036  0.24802499     0.14900
H2237       H  0.47874364  0.44399122  0.09106521     0.13100
H2238       H  0.45798933  0.41056997  0.12640101     0.13100
H2239       H  0.08627415  0.07754480  0.21598779     0.13100
H2240       H  0.06108886  0.04333737  0.24900747     0.13100
H2241       H  0.51948800  0.00844827  0.15240201     0.26400
H2242       H  0.00980266  0.48420313  0.18393429     0.26400
N2243       N  0.50852231  0.22975906  0.14382742    -0.36400
N2244       N  0.46273670  0.27738973  0.14185590    -0.56900
N2245       N  0.98751540  0.28275248  0.19477391    -0.36400
N2246       N  0.03103670  0.23691971  0.19698240    -0.56900
C2247       C  0.50008119  0.22938626  0.12026981     0.27200
C2248       C  0.51966696  0.20210265  0.14930692     0.27200
C2249       C  0.96300956  0.29918749  0.18872544     0.27200
C2250       C  0.98500949  0.27506332  0.21834907     0.27200
C2251       C  0.47216248  0.27772906  0.11865147     0.35800
C2252       C  0.45107068  0.30506203  0.14614536     0.35800
C2253       C  0.05192918  0.21531427  0.19365331     0.35800
C2254       C  0.02987919  0.24216268  0.22099246     0.35800
C2255       C  0.50653591  0.20156393  0.11047703    -0.21600
C2256       C  0.51844849  0.18418675  0.12885234    -0.21600
C2257       C  0.94464031  0.30227509  0.20861067    -0.21600
C2258       C  0.95841697  0.28676838  0.22734618    -0.21600
C2259       C  0.46522952  0.30507513  0.10785638    -0.22700
C2260       C  0.45230975  0.32258313  0.12535720    -0.22700
C2261       C  0.06454472  0.20692449  0.21573066    -0.22700
C2262       C  0.05081392  0.22424541  0.23305719    -0.22700
C2263       C  0.48744228  0.25381118  0.10721836    -0.18100
C2264       C  0.05455166  0.19858242  0.17223141    -0.18100
C2265       C  0.00707904  0.25940029  0.23210769    -0.18000
C2266       C  0.96121865  0.31752293  0.16805991    -0.18000
H2267       H  0.50247500  0.19433329  0.09212998     0.14900
H2268       H  0.52547284  0.16095249  0.12718237     0.14900
H2269       H  0.92425495  0.31564658  0.20971625     0.14900
H2270       H  0.95030717  0.28524800  0.24567517     0.14900
H2271       H  0.47025763  0.31213220  0.08961857     0.13100
H2272       H  0.44521165  0.34572744  0.12299749     0.13100
H2273       H  0.08068725  0.18896310  0.21908124     0.13100
H2274       H  0.05433659  0.22235875  0.25237837     0.13100
H2275       H  0.50863924  0.24850275  0.15495067     0.26400
H2276       H  0.00685136  0.28163477  0.18444203     0.26400
N2277       N  0.77624673  0.47468393  0.14246796    -0.36400
N2278       N  0.73293104  0.02289258  0.14002353    -0.56900
N2279       N  0.73326925  0.02332351  0.19277931    -0.36400
N2280       N  0.77218579  0.47391444  0.19591808    -0.56900
C2281       C  0.76832931  0.47484682  0.11878629     0.27200
C2282       C  0.78672616  0.44676484  0.14779049     0.27200
C2283       C  0.71040314  0.04246826  0.18773209     0.27200
C2284       C  0.73239142  0.01708488  0.21669859     0.27200
C2285       C  0.74261664  0.02372780  0.11696044     0.35800
C2286       C  0.71925798  0.04970332  0.14387030     0.35800
C2287       C  0.79333213  0.45263367  0.19238959     0.35800
C2288       C  0.77128820  0.47901165  0.21991770     0.35800
C2289       C  0.77515932  0.44729981  0.10864102    -0.21600
C2290       C  0.78645548  0.42944173  0.12699098    -0.21600
C2291       C  0.69464631  0.04861312  0.20863690    -0.21600
C2292       C  0.70840843  0.03236048  0.22695996    -0.21600
C2293       C  0.73422237  0.05052681  0.10590563    -0.22700
C2294       C  0.71955499  0.06712000  0.12298861    -0.22700
C2295       C  0.80605060  0.44396206  0.21433861    -0.22700
C2296       C  0.79225316  0.46089560  0.23180186    -0.22700
C2297       C  0.75523844  0.49934323  0.10613509    -0.18100
C2298       C  0.79597371  0.43615186  0.17091015    -0.18100
C2299       C  0.74996396  0.49782463  0.23128951    -0.18000
C2300       C  0.70793651  0.05944150  0.16630059    -0.18000
H2301       H  0.77154640  0.44047896  0.09012875     0.14900
H2302       H  0.79339932  0.40620269  0.12516496     0.14900
H2303       H  0.67614752  0.06438433  0.21060861     0.14900
H2304       H  0.70225669  0.03279764  0.24582786     0.14900
H2305       H  0.73900736  0.05763731  0.08764847     0.13100
H2306       H  0.71062472  0.08963858  0.12039958     0.13100
H2307       H  0.82241953  0.42614679  0.21747202     0.13100
H2308       H  0.79615870  0.45898313  0.25107444     0.13100
H2309       H  0.77582753  0.49300502  0.15398941     0.26400
H2310       H  0.75115517  0.01931138  0.18138076     0.26400
N2311       N  0.77707434  0.27096977  0.14142259    -0.36400
N2312       N  0.73311572  0.22397175  0.13873090    -0.56900
N2313       N  0.73169608  0.22243602  0.19200782    -0.36400
N2314       N  0.77237552  0.26943397  0.19483242    -0.56900
C2315       C  0.77003736  0.27169197  0.11754860     0.27200
C2316       C  0.78675800  0.29858003  0.14734155     0.27200
C2317       C  0.70907280  0.20444661  0.18579927     0.27200
C2318       C  0.72814530  0.22960261  0.21555111     0.27200
C2319       C  0.74289143  0.22385979  0.11566030     0.35800
C2320       C  0.72093737  0.19683552  0.14257663     0.35800
C2321       C  0.79338347  0.29029824  0.19176139     0.35800
C2322       C  0.77117515  0.26340970  0.21873832     0.35800
C2323       C  0.77668875  0.29950323  0.10790593    -0.21600
C2324       C  0.78680589  0.31663135  0.12674737    -0.21600
C2325       C  0.69088689  0.19974974  0.20557304    -0.21600
C2326       C  0.70275515  0.21595345  0.22436858    -0.21600
C2327       C  0.73596486  0.19706353  0.10456964    -0.22700
C2328       C  0.72240653  0.17972737  0.12175693    -0.22700
C2329       C  0.80603027  0.29745760  0.21391619    -0.22700
C2330       C  0.79209208  0.28018873  0.23104219    -0.22700
C2331       C  0.75736412  0.24799709  0.10435746    -0.18100
C2332       C  0.79526204  0.30814205  0.17078352    -0.18100
C2333       C  0.74872049  0.24603143  0.22952387    -0.18000
C2334       C  0.70877127  0.18714180  0.16471265    -0.18000
H2335       H  0.77358671  0.30703011  0.08940434     0.14900
H2336       H  0.79326510  0.33985268  0.12533584     0.14900
H2337       H  0.67185204  0.18510368  0.20653983     0.14900
H2338       H  0.69434511  0.21658080  0.24263997     0.14900
H2339       H  0.74085739  0.19043183  0.08622747     0.13100
H2340       H  0.71452383  0.15713275  0.11920445     0.13100
H2341       H  0.82213609  0.31478388  0.21746122     0.13100
H2342       H  0.79562171  0.28126703  0.25037817     0.13100
H2343       H  0.77653741  0.25229751  0.15274729     0.26400
H2344       H  0.75091152  0.22496698  0.18180179     0.26400
N2345       N  0.53444160  0.01668334  0.42592950    -0.36400
N2346       N  0.98637952  0.97604230  0.42124090    -0.56900
N2347       N  0.98586619  0.98320172  0.36840757    -0.36400
N2348       N  0.53254750  0.01799981  0.37220980    -0.56900
C2349       C  0.53445981  0.00768791  0.44937708     0.27200
C2350       C  0.56266085  0.02475169  0.42063865     0.27200
C2351       C  0.96595282  0.96122851  0.37166948     0.27200
C2352       C  0.99256630  0.98392563  0.34460085     0.27200
C2353       C  0.98634110  0.98220195  0.44512700     0.35800
C2354       C  0.95895251  0.96544926  0.41603816     0.35800
C2355       C  0.55562389  0.03616078  0.37653440     0.35800
C2356       C  0.52622443  0.02030733  0.34835304     0.35800
C2357       C  0.56267256  0.01107361  0.45937931    -0.21600
C2358       C  0.58060570  0.02146872  0.44115956    -0.21600
C2359       C  0.95973310  0.94771731  0.34979046    -0.21600
C2360       C  0.97664038  0.96194334  0.33267756    -0.21600
C2361       C  0.95931447  0.97451553  0.45531870    -0.22700
C2362       C  0.94179048  0.96420876  0.43682201    -0.22700
C2363       C  0.56404208  0.05030908  0.35528369    -0.22700
C2364       C  0.54514558  0.04047793  0.33742612    -0.22700
C2365       C  0.01059379  0.99440295  0.45784722    -0.18100
C2366       C  0.57270033  0.03551313  0.39800842    -0.18100
C2367       C  0.01079414  0.00538993  0.33317793    -0.18000
C2368       C  0.94901022  0.95735277  0.39271823    -0.18000
H2369       H  0.56978360  0.00582418  0.47768662     0.14900
H2370       H  0.60421503  0.02612998  0.44289318     0.14900
H2371       H  0.94360573  0.93035812  0.34641408     0.14900
H2372       H  0.97617695  0.95736134  0.31351761     0.14900
H2373       H  0.95263183  0.97685402  0.47397677     0.13100
H2374       H  0.91892617  0.95695306  0.43855073     0.13100
H2375       H  0.58274115  0.06510085  0.35276185     0.13100
H2376       H  0.54631306  0.04619096  0.31842482     0.13100
H2377       H  0.51580125  0.01905369  0.41466346     0.26400
H2378       H  0.99036829  0.99961260  0.38104469     0.26400
N2379       N  0.50953399  0.23837078  0.42639910    -0.36400
N2380       N  0.96282939  0.27473324  0.42553839    -0.56900
N2381       N  0.96535189  0.27347572  0.37196445    -0.36400
N2382       N  0.50681828  0.23422740  0.37344035    -0.56900
C2383       C  0.51002537  0.24924381  0.44915301     0.27200
C2384       C  0.53771958  0.22896703  0.42133253     0.27200
C2385       C  0.94574466  0.29597855  0.37631908     0.27200
C2386       C  0.97395689  0.27588460  0.34860385     0.27200
C2387       C  0.96147873  0.26600937  0.44898850     0.35800
C2388       C  0.93535254  0.28570612  0.41966120     0.35800
C2389       C  0.52947462  0.21486121  0.37828100     0.35800
C2390       C  0.50075233  0.23219657  0.34960223     0.35800
C2391       C  0.53846726  0.24589545  0.45900169    -0.21600
C2392       C  0.55609419  0.23351491  0.44132280    -0.21600
C2393       C  0.94144698  0.31299545  0.35548667    -0.21600
C2394       C  0.95953093  0.30047593  0.33799572    -0.21600
C2395       C  0.93347256  0.27237885  0.45832292    -0.22700
C2396       C  0.91671052  0.28443696  0.43961726    -0.22700
C2397       C  0.53769823  0.19991351  0.35738845    -0.22700
C2398       C  0.51941938  0.21087427  0.33918198    -0.22700
C2399       C  0.98548116  0.25259631  0.46200148    -0.18100
C2400       C  0.54739200  0.21638169  0.39922953    -0.18100
C2401       C  0.99245154  0.25484062  0.33641172    -0.18000
C2402       C  0.92681532  0.29667926  0.39649901    -0.18000
H2403       H  0.54589955  0.25242937  0.47683743     0.14900
H2404       H  0.57978038  0.22847328  0.44310236     0.14900
H2405       H  0.92577888  0.33155339  0.35292083     0.14900
H2406       H  0.96082866  0.30783848  0.31937262     0.14900
H2407       H  0.92570965  0.26792964  0.47645848     0.13100
H2408       H  0.89344231  0.29138769  0.44064929     0.13100
H2409       H  0.55631776  0.18432836  0.35522964     0.13100
H2410       H  0.52091870  0.20507638  0.32027597     0.13100
H2411       H  0.49057549  0.23565925  0.41570122     0.26400
H2412       H  0.96808077  0.25486791  0.38322072     0.26400
N2413       N  0.73298039  0.51714042  0.42586503    -0.36400
N2414       N  0.78303137  0.47514883  0.42546727    -0.56900
N2415       N  0.78260415  0.47959830  0.37215764    -0.36400
N2416       N  0.73279288  0.51866162  0.37261874    -0.56900
C2417       C  0.73285534  0.50635357  0.44876599     0.27200
C2418       C  0.70480286  0.52671717  0.42077772     0.27200
C2419       C  0.80288401  0.45756184  0.37661226     0.27200
C2420       C  0.77458914  0.47795495  0.34853802     0.27200
C2421       C  0.78294293  0.48264227  0.44912054     0.35800
C2422       C  0.81115397  0.46562174  0.42056052     0.35800
C2423       C  0.71181636  0.53966123  0.37736946     0.35800
C2424       C  0.73773092  0.51983219  0.34862856     0.35800
C2425       C  0.70463297  0.50972482  0.45858631    -0.21600
C2426       C  0.68676619  0.52219991  0.44080878    -0.21600
C2427       C  0.80819837  0.44167575  0.35557627    -0.21600
C2428       C  0.79001823  0.45435110  0.33786332    -0.21600
C2429       C  0.81070340  0.47697062  0.45953517    -0.22700
C2430       C  0.82879274  0.46664764  0.44133429    -0.22700
C2431       C  0.70346399  0.55463378  0.35623477    -0.22700
C2432       C  0.71996844  0.54204165  0.33796106    -0.22700
C2433       C  0.75788780  0.49450869  0.46125428    -0.18100
C2434       C  0.69496341  0.53978003  0.39869957    -0.18100
C2435       C  0.75555642  0.49875979  0.33619603    -0.18000
C2436       C  0.82094353  0.45597404  0.39758358    -0.18000
H2437       H  0.69753914  0.50333458  0.47652850     0.14900
H2438       H  0.66314537  0.52732946  0.44258242     0.14900
H2439       H  0.82441730  0.42366411  0.35310466     0.14900
H2440       H  0.78917138  0.44774182  0.31909654     0.14900
H2441       H  0.81743365  0.48078381  0.47807405     0.13100
H2442       H  0.85226994  0.46080358  0.44331225     0.13100
H2443       H  0.68584662  0.57142923  0.35404916     0.13100
H2444       H  0.71803492  0.54756742  0.31893793     0.13100
H2445       H  0.75169200  0.51990462  0.41502974     0.26400
H2446       H  0.77872698  0.49745082  0.38375373     0.26400
N2447       N  0.71382750  0.23374401  0.42365979    -0.36400
N2448       N  0.76334031  0.27468102  0.42325105    -0.56900
N2449       N  0.76299716  0.27120141  0.37007238    -0.36400
N2450       N  0.71376266  0.23289654  0.37033393    -0.56900
C2451       C  0.71412321  0.24404611  0.44662145     0.27200
C2452       C  0.68522505  0.22663121  0.41845549     0.27200
C2453       C  0.78251364  0.29328953  0.37420825     0.27200
C2454       C  0.75633697  0.27172987  0.34615856     0.27200
C2455       C  0.76399005  0.26633280  0.44679548     0.35800
C2456       C  0.79074121  0.28529707  0.41833117     0.35800
C2457       C  0.69150773  0.21385980  0.37497646     0.35800
C2458       C  0.71940650  0.23108371  0.34646157     0.35800
C2459       C  0.68575603  0.24293700  0.45633575    -0.21600
C2460       C  0.66736167  0.23248470  0.43842675    -0.21600
C2461       C  0.78836279  0.30824670  0.35274989    -0.21600
C2462       C  0.77168448  0.29471124  0.33501263    -0.21600
C2463       C  0.79148810  0.27246000  0.45711699    -0.22700
C2464       C  0.80861373  0.28423832  0.43898656    -0.22700
C2465       C  0.68288740  0.19962491  0.35388340    -0.22700
C2466       C  0.70078482  0.21040495  0.33578648    -0.22700
C2467       C  0.73949679  0.25420100  0.45905821    -0.18100
C2468       C  0.67479799  0.21443851  0.39642487    -0.18100
C2469       C  0.73867664  0.25046197  0.33401174    -0.18000
C2470       C  0.79994093  0.29555150  0.39537379    -0.18000
H2471       H  0.67889638  0.24979249  0.47421089     0.14900
H2472       H  0.64348709  0.22949735  0.44007019     0.14900
H2473       H  0.80423386  0.32601540  0.35003036     0.14900
H2474       H  0.77177602  0.30038685  0.31597287     0.14900
H2475       H  0.79859263  0.26838028  0.47560807     0.13100
H2476       H  0.83162835  0.29107924  0.44083276     0.13100
H2477       H  0.66452158  0.18434645  0.35160619     0.13100
H2478       H  0.69913711  0.20492286  0.31681134     0.13100
H2479       H  0.73245615  0.22975857  0.41290031     0.26400
H2480       H  0.75895875  0.25384728  0.38213907     0.26400
O2481       O  0.96756069  0.01804128  0.52943764    -0.71500
O2482       O  0.55365211  0.01956916  0.53624607    -0.71800
O2483       O  0.01189006  0.01806767  0.49612830    -0.71600
O2484       O  0.00971950  0.01798358  0.56441480    -0.71600
O2485       O  0.00772752  0.47731432  0.56917365    -0.71600
O2486       O  0.00464096  0.47612123  0.50048009    -0.71600
O2487       O  0.54800660  0.47404215  0.53043034    -0.71500
O2488       O  0.96301444  0.47589125  0.53577253    -0.71700
V2489       V  0.01081564  0.01696514  0.53031318     1.35200
V2490       V  0.00612098  0.47756575  0.53479996     1.35200
C2491       C  0.94717030  0.49980888  0.53440455     0.77700
C2492       C  0.56323049  0.49770189  0.53301500     0.77800
C2493       C  0.00573842  0.50034757  0.48851629     0.77600
C2494       C  0.00531608  0.50179582  0.58049056     0.77600
O2495       O  0.94553241  0.23086627  0.53530642    -0.71500
O2496       O  0.53109188  0.23406751  0.53378611    -0.71800
O2497       O  0.98847883  0.23302807  0.57010199    -0.71600
O2498       O  0.98874826  0.22969184  0.50125492    -0.71600
O2499       O  0.98385355  0.27824026  0.49969025    -0.71600
O2500       O  0.99109846  0.28141688  0.56803191    -0.71600
O2501       O  0.53148222  0.28255468  0.53218314    -0.71500
O2502       O  0.94441522  0.27939051  0.53629430    -0.71700
V2503       V  0.98865044  0.23215973  0.53562661     1.35200
V2504       V  0.98754256  0.27876311  0.53391405     1.35200
C2505       C  0.92999802  0.25500703  0.53593089     0.77700
C2506       C  0.54632105  0.25786770  0.53255332     0.77800
C2507       C  0.99023949  0.25791136  0.58087454     0.77600
C2508       C  0.98562628  0.25348281  0.48879039     0.77600
O2509       O  0.80436323  0.01847694  0.53106897    -0.71500
O2510       O  0.71780320  0.01999356  0.53223554    -0.71800
O2511       O  0.76216868  0.01841024  0.56593209    -0.71600
O2512       O  0.76012321  0.02018365  0.49728570    -0.71600
O2513       O  0.75849043  0.47035484  0.49986854    -0.71600
O2514       O  0.75272911  0.47106056  0.56828541    -0.71600
O2515       O  0.71215288  0.47165933  0.53188120    -0.71500
O2516       O  0.79889525  0.47036558  0.53630042    -0.71700
V2517       V  0.76110509  0.01831135  0.53159941     1.35200
V2518       V  0.75554164  0.47175129  0.53408096     1.35200
C2519       C  0.81370198  0.49450156  0.53488280     0.77700
C2520       C  0.69714265  0.49620803  0.53296392     0.77800
C2521       C  0.75406216  0.49533126  0.57988091     0.77600
C2522       C  0.75730390  0.49460469  0.48794908     0.77600
O2523       O  0.78212200  0.22778699  0.53089436    -0.71500
O2524       O  0.69553001  0.22797485  0.53217395    -0.71800
O2525       O  0.73766042  0.22882951  0.49709832    -0.71600
O2526       O  0.74039079  0.22682092  0.56574480    -0.71600
O2527       O  0.73611580  0.27526751  0.56632914    -0.71600
O2528       O  0.74041733  0.27744033  0.49779878    -0.71600
O2529       O  0.69494366  0.27646154  0.53029266    -0.71500
O2530       O  0.78132982  0.27614709  0.53404075    -0.71700
V2531       V  0.73886018  0.22875721  0.53145567     1.35200
V2532       V  0.73818092  0.27539777  0.53207579     1.35200
C2533       C  0.79672136  0.25192767  0.53287883     0.77700
C2534       C  0.68018249  0.25230669  0.53125693     0.77800
C2535       C  0.73938048  0.25347363  0.48578602     0.77600
C2536       C  0.73856374  0.25072752  0.57781955     0.77600
O2537       O  0.51934133  0.00144066  0.00018321    -0.71500
O2538       O  0.51757264  0.00571936  0.06846583    -0.71800
O2539       O  0.51942523  0.46055569  0.03551859    -0.71600
O2540       O  0.51871752  0.04698751  0.03255476    -0.71600
O2541       O  0.47036847  0.04809858  0.03446245    -0.71600
O2542       O  0.47105303  0.46020996  0.03302421    -0.71600
O2543       O  0.46905792  0.00313383  0.06762294    -0.71500
O2544       O  0.47092665  0.00690406  0.99896516    -0.71700
V2545       V  0.51734397  0.00360016  0.03429748     1.35200
V2546       V  0.47078862  0.00496622  0.03327335     1.35200
C2547       C  0.49551558  0.00418166  0.98795268     0.77700
C2548       C  0.49315258  0.00448999  0.07969655     0.77800
C2549       C  0.49557598  0.44543269  0.03421487     0.77600
C2550       C  0.49458159  0.06256224  0.03346713     0.77600
O2551       O  0.46993731  0.29761094  0.03153769    -0.71500
O2552       O  0.47063723  0.21107341  0.03453428    -0.71800
O2553       O  0.46692569  0.25621821  0.06722014    -0.71600
O2554       O  0.47294610  0.25243669  0.99888756    -0.71600
O2555       O  0.52125474  0.25626566  0.00163938    -0.71600
O2556       O  0.51528700  0.25181266  0.07033907    -0.71600
O2557       O  0.51907438  0.21093961  0.03442823    -0.71500
O2558       O  0.51790509  0.29718036  0.03737680    -0.71700
V2559       V  0.98673280  0.26218337  0.03452600     1.35200
V2560       V  0.51748099  0.25406168  0.03592880     1.35200
C2561       C  0.49381464  0.31235509  0.03446866     0.77700
C2562       C  0.49510592  0.19603054  0.03428184     0.77800
C2563       C  0.49001214  0.25399523  0.08046055     0.77600
C2564       C  0.49799083  0.25422806  0.98860255     0.77600
O2565       O  0.78111949  0.04245805  0.03244444    -0.71500
O2566       O  0.77969396  0.45572864  0.03330324    -0.71800
O2567       O  0.77969419  0.99888040  0.99838237    -0.71600
O2568       O  0.78155266  0.99909014  0.06695872    -0.71600
O2569       O  0.73290046  0.99998532  0.06734146    -0.71600
O2570       O  0.73110424  0.00177034  0.99880778    -0.71600
O2571       O  0.73124451  0.45659606  0.03335018    -0.71500
O2572       O  0.73272655  0.04383973  0.03371998    -0.71700
V2573       V  0.77962948  0.99916103  0.03268081     1.35200
V2574       V  0.73301276  0.00065144  0.03311954     1.35200
C2575       C  0.75708808  0.05813069  0.03336792     0.77700
C2576       C  0.75547291  0.44119133  0.03311297     0.77800
C2577       C  0.75513119  0.00048785  0.98694878     0.77600
C2578       C  0.75747735  0.99960795  0.07875776     0.77600
O2579       O  0.78277672  0.20669854  0.03167522    -0.71500
O2580       O  0.78020404  0.29321462  0.03153573    -0.71800
O2581       O  0.78179819  0.24980497  0.06601149    -0.71600
O2582       O  0.78126124  0.25043084  0.99716914    -0.71600
O2583       O  0.73269822  0.24857773  0.99720381    -0.71600
O2584       O  0.73317832  0.24950471  0.06579846    -0.71600
O2585       O  0.73177119  0.29262677  0.03072907    -0.71500
O2586       O  0.73436551  0.20615750  0.03222572    -0.71700
V2587       V  0.78057562  0.25000078  0.03158401     1.35200
V2588       V  0.73397183  0.24930960  0.03149247     1.35200
C2589       C  0.75898107  0.19145434  0.03217008     0.77700
C2590       C  0.75556869  0.30789407  0.03090102     0.77800
C2591       C  0.75751521  0.24929295  0.07758504     0.77600
C2592       C  0.75683569  0.24947729  0.98552469     0.77600
N2593       N  0.51679908  0.48000466  0.92612110    -0.36400
N2594       N  0.47361840  0.02838465  0.92583850    -0.56900
N2595       N  0.99382422  0.04218820  0.86949852    -0.36400
N2596       N  0.03217112  0.49151479  0.87350687    -0.56900
C2597       C  0.50725514  0.47949174  0.94927967     0.27200
C2598       C  0.52771161  0.45222922  0.92111621     0.27200
C2599       C  0.97058876  0.06096085  0.87393365     0.27200
C2600       C  0.99240785  0.03456159  0.84586061     0.27200
C2601       C  0.48273829  0.02907799  0.94912796     0.35800
C2602       C  0.46102488  0.05557691  0.92120334     0.35800
C2603       C  0.05521531  0.47240650  0.87784827     0.35800
C2604       C  0.03148584  0.49695063  0.84950322     0.35800
C2605       C  0.51311669  0.45151337  0.95944417    -0.21600
C2606       C  0.52552545  0.43412096  0.94155836    -0.21600
C2607       C  0.95416999  0.06570309  0.85286774    -0.21600
C2608       C  0.96769065  0.04864029  0.83517542    -0.21600
C2609       C  0.47522788  0.05632426  0.95952103    -0.22700
C2610       C  0.46173711  0.07332591  0.94169314    -0.22700
C2611       C  0.06958364  0.46566137  0.85638858    -0.22700
C2612       C  0.05480058  0.48161415  0.83841688    -0.22700
C2613       C  0.49648518  0.00477654  0.96134120    -0.18100
C2614       C  0.05726489  0.45474507  0.89895384    -0.18100
C2615       C  0.01426088  0.01707971  0.83360348    -0.18000
C2616       C  0.96748734  0.07794079  0.89520435    -0.18000
H2617       H  0.50807306  0.44410668  0.97760773     0.14900
H2618       H  0.53195551  0.41073257  0.94351232     0.14900
H2619       H  0.93502947  0.08065656  0.85041484     0.14900
H2620       H  0.96074712  0.04763169  0.81643244     0.14900
H2621       H  0.47954430  0.06338653  0.97787214     0.13100
H2622       H  0.45351130  0.09613854  0.94364127     0.13100
H2623       H  0.08752559  0.44939311  0.85383567     0.13100
H2624       H  0.05950751  0.48057521  0.81928915     0.13100
H2625       H  0.51731666  0.49877614  0.91485239     0.26400
H2626       H  0.01193312  0.03880607  0.88114768     0.26400
N2627       N  0.47783233  0.22922210  0.92650533    -0.36400
N2628       N  0.52009848  0.27805557  0.92607070    -0.56900
N2629       N  0.01886891  0.29417424  0.87360222    -0.36400
N2630       N  0.97780774  0.24708078  0.87396883    -0.56900
C2631       C  0.48812663  0.22884377  0.94956351     0.27200
C2632       C  0.46834002  0.20127536  0.92153019     0.27200
C2633       C  0.04322964  0.31087799  0.87766390     0.27200
C2634       C  0.01818344  0.28780803  0.84974485     0.27200
C2635       C  0.51179787  0.27840795  0.94952483     0.35800
C2636       C  0.52970176  0.30594285  0.92090112     0.35800
C2637       C  0.95797178  0.22549507  0.87856316     0.35800
C2638       C  0.97402908  0.25523312  0.85065873     0.35800
C2639       C  0.48442263  0.20062478  0.95962953    -0.21600
C2640       C  0.47228568  0.18305958  0.94181215    -0.21600
C2641       C  0.05826125  0.31544314  0.85619571    -0.21600
C2642       C  0.04265725  0.30050114  0.83855812    -0.21600
C2643       C  0.51696203  0.30621139  0.95953747    -0.22700
C2644       C  0.52787488  0.32385525  0.94129561    -0.22700
C2645       C  0.94075874  0.22022541  0.85814861    -0.22700
C2646       C  0.95056474  0.23956170  0.84051343    -0.22700
C2647       C  0.49969372  0.25375514  0.96188586    -0.18100
C2648       C  0.96113255  0.20576627  0.89832387    -0.18100
C2649       C  0.99498818  0.27237500  0.83781682    -0.18000
C2650       C  0.04781268  0.32743941  0.89885057    -0.18000
H2651       H  0.49033310  0.19334817  0.97776969     0.14900
H2652       H  0.46678320  0.15960546  0.94367135     0.14900
H2653       H  0.07766948  0.32922644  0.85344275     0.14900
H2654       H  0.04815835  0.29997405  0.81956215     0.14900
H2655       H  0.51248549  0.31329598  0.97784235     0.13100
H2656       H  0.53355139  0.34722934  0.94299802     0.13100
H2657       H  0.92434494  0.20288268  0.85580771     0.13100
H2658       H  0.94295485  0.24023247  0.82190777     0.13100
H2659       H  0.47539073  0.24810943  0.91542045     0.26400
H2660       H  0.00141186  0.29174095  0.88569517     0.26400
N2661       N  0.77784198  0.47646398  0.92501333    -0.36400
N2662       N  0.73509374  0.02545763  0.92388586    -0.56900
N2663       N  0.74228993  0.02759251  0.87089915    -0.36400
N2664       N  0.77575653  0.47845098  0.87202207    -0.56900
C2665       C  0.76832803  0.47562282  0.94816024     0.27200
C2666       C  0.78718158  0.44838820  0.91934086     0.27200
C2667       C  0.71801890  0.04514458  0.87476280     0.27200
C2668       C  0.74174376  0.01967452  0.84731709     0.27200
C2669       C  0.74154739  0.02531632  0.94779341     0.35800
C2670       C  0.72320009  0.05283787  0.91883304     0.35800
C2671       C  0.79735165  0.45759366  0.87590417     0.35800
C2672       C  0.77589299  0.48505761  0.84822004     0.35800
C2673       C  0.77259826  0.44704109  0.95765836    -0.21600
C2674       C  0.78412356  0.42969456  0.93934920    -0.21600
C2675       C  0.70185807  0.04882016  0.85347731    -0.21600
C2676       C  0.71663069  0.03233045  0.83614795    -0.21600
C2677       C  0.73282662  0.05221587  0.95815869    -0.22700
C2678       C  0.72150659  0.06986489  0.93971260    -0.22700
C2679       C  0.81168748  0.45098226  0.85441185    -0.22700
C2680       C  0.79834912  0.46876153  0.83685956    -0.22700
C2681       C  0.75474587  0.00081106  0.96025395    -0.18100
C2682       C  0.79822940  0.43918016  0.89659340    -0.18100
C2683       C  0.76435858  0.00287346  0.83549667    -0.18000
C2684       C  0.71381253  0.06248161  0.89558808    -0.18000
H2685       H  0.76722739  0.43933117  0.97567460     0.14900
H2686       H  0.78956676  0.40598810  0.94067804     0.14900
H2687       H  0.68203810  0.06273893  0.85066334     0.14900
H2688       H  0.71018282  0.03067922  0.81732610     0.14900
H2689       H  0.73496833  0.05866380  0.97690298     0.13100
H2690       H  0.71306773  0.09261126  0.94156345     0.13100
H2691       H  0.82865163  0.43378671  0.85150756     0.13100
H2692       H  0.80340687  0.46836729  0.81777633     0.13100
H2693       H  0.77941292  0.49559416  0.91420924     0.26400
H2694       H  0.76026504  0.02540945  0.88288952     0.26400
N2695       N  0.73171537  0.22654831  0.92406746    -0.36400
N2696       N  0.77517770  0.27436981  0.92262355    -0.56900
N2697       N  0.76682885  0.27721636  0.86987234    -0.36400
N2698       N  0.72653957  0.22948484  0.87123194    -0.56900
C2699       C  0.74355944  0.22535565  0.94663040     0.27200
C2700       C  0.72212752  0.19871140  0.91885951     0.27200
C2701       C  0.79054870  0.29487086  0.87356159     0.27200
C2702       C  0.76630481  0.27016975  0.84614433     0.27200
C2703       C  0.76800965  0.27442841  0.94632676     0.35800
C2704       C  0.78533624  0.30208257  0.91762165     0.35800
C2705       C  0.70626867  0.20853086  0.87639352     0.35800
C2706       C  0.72308010  0.23645593  0.84764142     0.35800
C2707       C  0.74060585  0.19683122  0.95626438    -0.21600
C2708       C  0.72748003  0.17982723  0.93857478    -0.21600
C2709       C  0.80531370  0.29944626  0.85196330    -0.21600
C2710       C  0.79022120  0.28345783  0.83463790    -0.21600
C2711       C  0.77432541  0.30184669  0.95657323    -0.22700
C2712       C  0.78492222  0.31956789  0.93828806    -0.22700
C2713       C  0.68931602  0.20234248  0.85600479    -0.22700
C2714       C  0.69973127  0.22041227  0.83777366    -0.22700
C2715       C  0.75627295  0.24972559  0.95880356    -0.18100
C2716       C  0.70860125  0.18988929  0.89687028    -0.18100
C2717       C  0.74359979  0.25374245  0.83454643    -0.18000
C2718       C  0.79490577  0.31173851  0.89460655    -0.18000
H2719       H  0.74782584  0.18895296  0.97394821     0.14900
H2720       H  0.72235468  0.15625303  0.94014224     0.14900
H2721       H  0.82424746  0.31378412  0.84892617     0.14900
H2722       H  0.79559759  0.28264555  0.81562037     0.14900
H2723       H  0.77089697  0.30860575  0.97510423     0.13100
H2724       H  0.79140781  0.34272648  0.94006011     0.13100
H2725       H  0.67251856  0.18527526  0.85417866     0.13100
H2726       H  0.69226149  0.22035353  0.81913005     0.13100
H2727       H  0.72868763  0.24579522  0.91352724     0.26400
H2728       H  0.74957669  0.27447514  0.88215014     0.26400
N2729       N  0.52540279  0.51577004  0.64266249    -0.36400
N2730       N  0.52337065  0.51992082  0.69608292    -0.56900
N2731       N  0.98003627  0.48540966  0.69740763    -0.36400
N2732       N  0.98139121  0.48289475  0.64395446    -0.56900
C2733       C  0.54413100  0.53807962  0.64801786     0.27200
C2734       C  0.51944975  0.51733534  0.61865739     0.27200
C2735       C  0.97897355  0.49716692  0.71992353     0.27200
C2736       C  0.95231343  0.47573660  0.69205871     0.27200
C2737       C  0.55181754  0.52768843  0.69154222     0.35800
C2738       C  0.52288510  0.51097387  0.71946011     0.35800
C2739       C  0.98679015  0.48176962  0.61997773     0.35800
C2740       C  0.96060893  0.46227625  0.64884398     0.35800
C2741       C  0.55030193  0.55440352  0.62738528    -0.21600
C2742       C  0.53475943  0.54144207  0.60882712    -0.21600
C2743       C  0.95053797  0.49433710  0.72924461    -0.21600
C2744       C  0.93361372  0.48098167  0.71162537    -0.21600
C2745       C  0.56937665  0.52402874  0.71218064    -0.22700
C2746       C  0.55086203  0.51365478  0.73000137    -0.22700
C2747       C  0.96908005  0.46001401  0.60950674    -0.22700
C2748       C  0.95269538  0.44759056  0.62780578    -0.22700
C2749       C  0.56184806  0.53821968  0.66898875    -0.18100
C2750       C  0.00503088  0.50239437  0.60741854    -0.18100
C2751       C  0.94334133  0.46237458  0.67005895    -0.18000
C2752       C  0.00366198  0.50890251  0.73251536    -0.18000
H2753       H  0.56625392  0.57228047  0.62561090     0.14900
H2754       H  0.53662916  0.54829626  0.59018288     0.14900
H2755       H  0.95633145  0.99929075  0.74467199     0.14900
H2756       H  0.91011404  0.47589006  0.71313085     0.14900
H2757       H  0.59302499  0.52828727  0.71420667     0.13100
H2758       H  0.55959237  0.01508179  0.75126338     0.13100
H2759       H  0.96664212  0.45456997  0.59061669     0.13100
H2760       H  0.93524717  0.43125027  0.62561411     0.13100
H2761       H  0.52221085  0.49748613  0.65403942     0.26400
H2762       H  0.99911961  0.48218511  0.68697552     0.26400
N2763       N  0.51775891  0.23972766  0.64284925    -0.36400
N2764       N  0.52039878  0.23814706  0.69614831    -0.56900
N2765       N  0.96859241  0.28730564  0.69684511    -0.36400
N2766       N  0.96842522  0.28276027  0.64332226    -0.56900
C2767       C  0.53823478  0.21801582  0.64750734     0.27200
C2768       C  0.50963059  0.23751854  0.61931153     0.27200
C2769       C  0.96891832  0.27756619  0.72003576     0.27200
C2770       C  0.93972605  0.29269451  0.69078974     0.27200
C2771       C  0.54841284  0.22916950  0.69062178     0.35800
C2772       C  0.52130733  0.24683042  0.71947476     0.35800
C2773       C  0.97375246  0.28265430  0.61934731     0.35800
C2774       C  0.94741336  0.30395725  0.64742202     0.35800
C2775       C  0.54343030  0.20148921  0.62683696    -0.21600
C2776       C  0.52534924  0.21372071  0.60899767    -0.21600
C2777       C  0.94018195  0.27719946  0.72906942    -0.21600
C2778       C  0.92158910  0.28633071  0.71044299    -0.21600
C2779       C  0.56716442  0.23190557  0.71059666    -0.22700
C2780       C  0.54978496  0.24283972  0.72903539    -0.22700
C2781       C  0.95601148  0.30460812  0.60808092    -0.22700
C2782       C  0.93931998  0.31799660  0.62590316    -0.22700
C2783       C  0.55689951  0.21764351  0.66798571    -0.18100
C2784       C  0.99091886  0.25986976  0.60783418    -0.18100
C2785       C  0.92950825  0.30362234  0.66812514    -0.18000
C2786       C  0.99488500  0.26944565  0.73306616    -0.18000
H2787       H  0.55992604  0.18369335  0.62452308     0.14900
H2788       H  0.52531533  0.20653886  0.59041431     0.14900
H2789       H  0.93336252  0.27040608  0.74698481     0.14900
H2790       H  0.89745296  0.28811547  0.71137344     0.14900
H2791       H  0.59080812  0.22639559  0.71183889     0.13100
H2792       H  0.55722939  0.24756845  0.74724633     0.13100
H2793       H  0.95331869  0.30930760  0.58902287     0.13100
H2794       H  0.92140663  0.33434758  0.62313221     0.13100
H2795       H  0.51431590  0.25807243  0.65407958     0.26400
H2796       H  0.98724398  0.29179665  0.68625091     0.26400
N2797       N  0.72737953  0.51512449  0.64261288    -0.36400
N2798       N  0.77694294  0.47543494  0.64367967    -0.56900
N2799       N  0.77667093  0.47570221  0.69719598    -0.36400
N2800       N  0.72613125  0.51709189  0.69581968    -0.56900
C2801       C  0.73422029  0.51608148  0.61879541     0.27200
C2802       C  0.70624385  0.53635195  0.64659401     0.27200
C2803       C  0.80536746  0.46791069  0.69246902     0.27200
C2804       C  0.78638418  0.98582873  0.71824389     0.27200
C2805       C  0.77230313  0.47476118  0.61954606     0.35800
C2806       C  0.79934979  0.45583395  0.64876215     0.35800
C2807       C  0.69837943  0.52773967  0.69061933     0.35800
C2808       C  0.73428250  0.00355321  0.71816411     0.35800
C2809       C  0.71698815  0.53854751  0.60763114    -0.21600
C2810       C  0.69937113  0.55125228  0.62518988    -0.21600
C2811       C  0.83373521  0.97607795  0.70998410    -0.21600
C2812       C  0.81493285  0.98548696  0.72801011    -0.21600
C2813       C  0.79196478  0.45417379  0.60920440    -0.22700
C2814       C  0.80898600  0.44217400  0.62772020    -0.22700
C2815       C  0.68773047  0.01714926  0.70999025    -0.22700
C2816       C  0.70635288  0.00741799  0.72833431    -0.22700
C2817       C  0.75331915  0.49526369  0.60676958    -0.18100
C2818       C  0.68873425  0.53801353  0.66758609    -0.18100
C2819       C  0.76038950  0.99466047  0.73071950    -0.18000
C2820       C  0.81617190  0.45632640  0.67036308    -0.18000
H2821       H  0.71568024  0.54440356  0.58868467     0.14900
H2822       H  0.68214736  0.56830809  0.62231175     0.14900
H2823       H  0.85780681  0.97376334  0.71165015     0.14900
H2824       H  0.82162772  0.99195846  0.74603676     0.14900
H2825       H  0.79537365  0.44950495  0.59028868     0.13100
H2826       H  0.82790530  0.42691304  0.62573820     0.13100
H2827       H  0.66407562  0.02223045  0.71172518     0.13100
H2828       H  0.70005147  0.00340161  0.74690119     0.13100
H2829       H  0.73249307  0.49794534  0.65475418     0.26400
H2830       H  0.75823376  0.47250537  0.68597106     0.26400
N2831       N  0.71817690  0.22929059  0.64177771    -0.36400
N2832       N  0.76438408  0.27027227  0.64059511    -0.56900
N2833       N  0.76719146  0.26909604  0.69403205    -0.36400
N2834       N  0.71995949  0.22608201  0.69519897    -0.56900
C2835       C  0.72437838  0.22790416  0.61787252     0.27200
C2836       C  0.70056403  0.20604532  0.64719480     0.27200
C2837       C  0.79485579  0.27838635  0.68832717     0.27200
C2838       C  0.76843217  0.25939616  0.71725814     0.27200
C2839       C  0.75788337  0.27153531  0.61673825     0.35800
C2840       C  0.78549037  0.29071412  0.64486056     0.35800
C2841       C  0.69248735  0.21540195  0.69068278     0.35800
C2842       C  0.71961715  0.23523747  0.71840262     0.35800
C2843       C  0.71028554  0.20310717  0.60811489    -0.21600
C2844       C  0.69519118  0.18948062  0.62664297    -0.21600
C2845       C  0.81369015  0.27485575  0.70831830    -0.21600
C2846       C  0.79680275  0.26328252  0.72670645    -0.21600
C2847       C  0.77507133  0.29339731  0.60576667    -0.22700
C2848       C  0.79244765  0.30555983  0.62362093    -0.22700
C2849       C  0.67495275  0.21713671  0.71127260    -0.22700
C2850       C  0.69244298  0.22926560  0.72901202    -0.22700
C2851       C  0.73990558  0.25025091  0.60474254    -0.18100
C2852       C  0.68293227  0.20483401  0.66802180    -0.18100
C2853       C  0.74414507  0.24797616  0.73017158    -0.18000
C2854       C  0.80343880  0.29060333  0.66580972    -0.18000
H2855       H  0.70931327  0.19600440  0.58953660     0.14900
H2856       H  0.68025145  0.17073218  0.62493451     0.14900
H2857       H  0.83717336  0.28017888  0.70964836     0.14900
H2858       H  0.80462066  0.25777016  0.74478041     0.14900
H2859       H  0.77685596  0.29885259  0.58680223     0.13100
H2860       H  0.80990731  0.32177669  0.62097489     0.13100
H2861       H  0.65192257  0.21063014  0.71338305     0.13100
H2862       H  0.68572701  0.23389387  0.74737840     0.13100
H2863       H  0.72060398  0.24776638  0.65290717     0.26400
H2864       H  0.74803142  0.27136861  0.68336013     0.26400
C2865       C  0.88482785  0.28002824  0.65214081    -0.26100
C2866       C  0.89703068  0.30465492  0.66395184    -0.14100
C2867       C  0.87822342  0.32679977  0.67406241     0.36500
C2868       C  0.84724986  0.32309812  0.67318425    -0.25500
C2869       C  0.83524791  0.29737436  0.66264329    -0.14800
C2870       C  0.85423041  0.27596970  0.65158097     0.37600
N2871       N  0.84321731  0.24895902  0.64105312    -0.89000
H2872       H  0.89938121  0.26283113  0.64459141     0.18700
H2873       H  0.83261203  0.33932406  0.68182547     0.18700
N2874       N  0.89016082  0.35250346  0.68581886    -0.88000
H2875       H  0.82921447  0.25451794  0.62649906     0.36100
H2876       H  0.83093780  0.23735344  0.65403514     0.41100
H2877       H  0.90370440  0.36365998  0.67347152     0.40800
H2878       H  0.90353836  0.34540225  0.70038208     0.35700
C2879       C  0.60152189  0.18454275  0.67365656    -0.26100
C2880       C  0.58863016  0.21090541  0.66405210    -0.14100
C2881       C  0.60658934  0.23270907  0.65304907     0.36500
C2882       C  0.63724131  0.22829689  0.65270411    -0.25500
C2883       C  0.65053875  0.20309233  0.66388370    -0.14800
C2884       C  0.63260065  0.18055701  0.67405457     0.37600
N2885       N  0.64513803  0.15443027  0.68585774    -0.89000
H2886       H  0.58750487  0.16796823  0.68214707     0.18700
H2887       H  0.65101975  0.24586393  0.64527033     0.18700
N2888       N  0.59448192  0.26042720  0.64358363    -0.88000
H2889       H  0.63945579  0.15542795  0.70411506     0.36100
H2890       H  0.66847786  0.15411786  0.68504359     0.41100
H2891       H  0.58271222  0.27144639  0.65726438     0.40800
H2892       H  0.57973077  0.25576214  0.62944330     0.35700
C2893       C  0.87439444  0.97938328  0.65395876    -0.26100
C2894       C  0.84886492  0.45340072  0.66768482    -0.14100
C2895       C  0.86626458  0.43072561  0.67919725     0.36500
C2896       C  0.89752604  0.43256799  0.67881874    -0.25500
C2897       C  0.91116760  0.45663722  0.66695336    -0.14800
C2898       C  0.90539139  0.97989648  0.65395075     0.37600
N2899       N  0.92036273  0.00472972  0.64310984    -0.93800
H2900       H  0.86179600  0.99792503  0.64585647     0.18700
H2901       H  0.91112698  0.41616893  0.68863190     0.18700
N2902       N  0.85269229  0.40621408  0.69158181    -0.88000
H2903       H  0.91292905  0.02440446  0.65149311     0.36100
H2904       H  0.91404367  0.00591514  0.62489401     0.41100
H2905       H  0.83873406  0.39535457  0.67932845     0.40800
H2906       H  0.83946008  0.41453958  0.70556257     0.35700
C2907       C  0.61803221  0.06368462  0.67380947    -0.26100
C2908       C  0.59413739  0.54160262  0.66536538    -0.14100
C2909       C  0.61007620  0.51891979  0.65310581     0.36500
C2910       C  0.64106864  0.51984973  0.65231153    -0.25500
C2911       C  0.65640259  0.54281181  0.66388033    -0.14800
C2912       C  0.64919229  0.06191366  0.67200666     0.37600
N2913       N  0.66726699  0.08678430  0.67845526    -0.89000
H2914       H  0.60728088  0.08402677  0.68029545     0.18700
H2915       H  0.65334109  0.50146315  0.64402566     0.18700
N2916       N  0.59487180  0.49409185  0.64255945    -0.88000
H2917       H  0.66206814  0.09295092  0.69614847     0.36100
H2918       H  0.66148463  0.10447971  0.66679982     0.41100
H2919       H  0.60316287  0.47431791  0.65060310     0.40800
H2920       H  0.60003250  0.49349448  0.62417402     0.35700
C2921       C  0.75118417  0.22539726  0.79640958    -0.26100
C2922       C  0.74314039  0.25238476  0.80771820    -0.14100
C2923       C  0.73561838  0.27783837  0.79356454     0.36500
C2924       C  0.73661035  0.27585576  0.76826300    -0.25500
C2925       C  0.74463631  0.24885916  0.75695053    -0.14800
C2926       C  0.75208887  0.22326303  0.77119782     0.37600
N2927       N  0.76071959  0.19492429  0.76083994    -0.89000
H2928       H  0.75707373  0.20586902  0.80733539     0.18700
H2929       H  0.73078317  0.29531671  0.75724888     0.18700
N2930       N  0.72709920  0.30551766  0.80499173    -0.88000
H2931       H  0.78271695  0.19013659  0.76633804     0.36100
H2932       H  0.76094487  0.19585616  0.74199860     0.41100
H2933       H  0.70714968  0.30186488  0.81424040     0.40800
H2934       H  0.72243724  0.32214319  0.79203305     0.35700
C2935       C  0.77649436  0.36089356  0.88125921    -0.26100
C2936       C  0.80031869  0.34399414  0.89108924    -0.14100
C2937       C  0.82592941  0.35840623  0.90007390     0.36500
C2938       C  0.82610279  0.38999680  0.90057177    -0.25500
C2939       C  0.80108495  0.40664616  0.89230469    -0.14800
C2940       C  0.77654250  0.39199098  0.88199330     0.37600
N2941       N  0.75079956  0.40873799  0.87356978    -0.89000
H2942       H  0.75678971  0.34979393  0.87439786     0.18700
H2943       H  0.84496907  0.40157296  0.90832005     0.18700
N2944       N  0.85118015  0.34103671  0.90885452    -0.88000
H2945       H  0.73220973  0.40167047  0.88331577     0.36100
H2946       H  0.74728375  0.40359442  0.85538504     0.41100
H2947       H  0.84455690  0.32920301  0.92419963     0.40800
H2948       H  0.86829068  0.35519678  0.91442628     0.35700
C2949       C  0.73094930  0.11111922  0.88164922    -0.26100
C2950       C  0.70760780  0.09475640  0.89172358    -0.14100
C2951       C  0.68194706  0.10991694  0.90067250     0.36500
C2952       C  0.68155626  0.14140099  0.90115497    -0.25500
C2953       C  0.70605396  0.15745484  0.89260744    -0.14800
C2954       C  0.73046259  0.14225806  0.88216228     0.37600
N2955       N  0.75565460  0.15849724  0.87342821    -0.89000
H2956       H  0.75066126  0.09958008  0.87479222     0.18700
H2957       H  0.66276104  0.15329948  0.90909519     0.18700
N2958       N  0.65682437  0.09419499  0.91027834    -0.88000
H2959       H  0.75871407  0.15308392  0.85525766     0.36100
H2960       H  0.77466319  0.15122625  0.88308263     0.41100
H2961       H  0.65973350  0.07101282  0.90858362     0.40800
H2962       H  0.63814463  0.10004677  0.89967105     0.35700
C2963       C  0.74449351  0.47483357  0.79823674    -0.26100
C2964       C  0.76369611  0.00096130  0.80858476    -0.14100
C2965       C  0.77323594  0.02491957  0.79393999     0.36500
C2966       C  0.77166989  0.02235165  0.76861108    -0.25500
C2967       C  0.76109890  0.99619924  0.75765163    -0.14800
C2968       C  0.74437885  0.47267972  0.77304782     0.37600
N2969       N  0.73791564  0.44438580  0.76225671    -0.89000
H2970       H  0.73977742  0.45510427  0.80902114     0.18700
H2971       H  0.77898209  0.04070665  0.75728601     0.18700
N2972       N  0.78523831  0.05135504  0.80484231    -0.88000
H2973       H  0.71936861  0.44730052  0.75080702     0.36100
H2974       H  0.75624758  0.43778183  0.75182151     0.41100
H2975       H  0.76796337  0.06211556  0.81421970     0.40800
H2976       H  0.79214617  0.06645349  0.79156104     0.35700
C2977       C  0.99013428  0.29814093  0.79767264    -0.26100
C2978       C  0.99474896  0.27149790  0.81092622    -0.14100
C2979       C  0.50086217  0.22661783  0.79659959     0.36500
C2980       C  0.50038126  0.22832352  0.77119434    -0.25500
C2981       C  0.99482291  0.27078095  0.75994290    -0.14800
C2982       C  0.99054251  0.29813190  0.77239062     0.37600
N2983       N  0.98770924  0.32629969  0.75988006    -0.89000
H2984       H  0.98664676  0.31913689  0.80708982     0.18700
H2985       H  0.50342040  0.20808735  0.76069075     0.18700
N2986       N  0.50581594  0.19827358  0.80865680    -0.88000
H2987       H  0.96851737  0.32621809  0.74904052     0.36100
H2988       H  0.00637412  0.32878241  0.74879715     0.41100
H2989       H  0.52599588  0.19947558  0.81822719     0.40800
H2990       H  0.50843779  0.18104231  0.79607221     0.35700
C2991       C  0.56833087  0.36238138  0.90600780    -0.26100
C2992       C  0.05407008  0.35960685  0.89560491    -0.14100
C2993       C  0.03155125  0.37800489  0.88520293     0.36500
C2994       C  0.03495894  0.40883208  0.88470278    -0.25500
C2995       C  0.06003786  0.42204397  0.89518322    -0.14800
C2996       C  0.56863891  0.39386386  0.90683758     0.37600
N2997       N  0.59195470  0.40803981  0.92039232    -0.89000
H2998       H  0.58496753  0.34945893  0.91614839     0.18700
H2999       H  0.01675979  0.42277236  0.87758868     0.18700
N3000       N  0.00421168  0.36545891  0.87649570    -0.88000
H3001       H  0.58942744  0.40206158  0.93855788     0.36100
H3002       H  0.59003652  0.43137619  0.91930098     0.41100
H3003       H  0.00150885  0.37158270  0.85833128     0.40800
H3004       H  0.98647931  0.37492299  0.88620134     0.35700
C3005       C  0.93507100  0.15670459  0.90319923    -0.26100
C3006       C  0.95852980  0.17330954  0.89336149    -0.14100
C3007       C  0.47472457  0.14194535  0.88640571     0.36500
C3008       C  0.47182358  0.11115635  0.88534443    -0.25500
C3009       C  0.96074244  0.11037975  0.89199415    -0.14800
C3010       C  0.93583964  0.12522473  0.90241327     0.37600
N3011       N  0.91149589  0.10893988  0.91247384    -0.89000
H3012       H  0.91686973  0.16817678  0.91232206     0.18700
H3013       H  0.49070944  0.09770128  0.87920374     0.18700
N3014       N  0.50258099  0.15451677  0.87907323    -0.88000
H3015       H  0.91961588  0.09503027  0.92637948     0.36100
H3016       H  0.90271131  0.09534433  0.89894265     0.41100
H3017       H  0.51176309  0.16616840  0.89362582     0.40800
H3018       H  0.49857707  0.16947945  0.86479661     0.35700
C3019       C  0.99748182  0.48470745  0.77313259    -0.26100
C3020       C  0.00327667  0.51069268  0.75952226    -0.14100
C3021       C  0.50060996  0.03594826  0.77300955     0.36500
C3022       C  0.50096310  0.03424191  0.79824803    -0.25500
C3023       C  0.00576197  0.51162431  0.81066157    -0.14800
C3024       C  0.99787300  0.48510930  0.79844434     0.37600
N3025       N  0.98908284  0.45867764  0.81125379    -0.89000
H3026       H  0.99240182  0.46396244  0.76399313     0.18700
H3027       H  0.50395644  0.05454860  0.80859022     0.18700
N3028       N  0.50189155  0.06494335  0.76175960    -0.88000
H3029       H  0.00683588  0.45102190  0.82211999     0.36100
H3030       H  0.97110183  0.46438177  0.82239556     0.41100
H3031       H  0.48301553  0.06778710  0.75063695     0.40800
H3032       H  0.52096385  0.06600970  0.75107483     0.35700
C3033       C  0.78094512  0.35775768  0.03712604    -0.26100
C3034       C  0.75495498  0.34208406  0.03072082    -0.14100
C3035       C  0.72913277  0.35951412  0.02429763     0.36500
C3036       C  0.72956557  0.39143115  0.02570871    -0.25500
C3037       C  0.75556718  0.40702057  0.03240974    -0.14800
C3038       C  0.78156611  0.38952115  0.03782253     0.37600
N3039       N  0.80887864  0.40382127  0.04434213    -0.89000
H3040       H  0.80117460  0.34524965  0.04184416     0.18700
H3041       H  0.70954662  0.40425031  0.02094957     0.18700
N3042       N  0.70267616  0.34491688  0.01578253    -0.88000
H3043       H  0.82531462  0.39718494  0.03204939     0.36100
H3044       H  0.81539493  0.39607749  0.06149361     0.41100
H3045       H  0.70801187  0.33459340  0.99941336     0.40800
H3046       H  0.68571402  0.36068507  0.01187566     0.35700
C3047       C  0.73283091  0.14194256  0.03785569    -0.26100
C3048       C  0.75944293  0.15727138  0.03284134    -0.14100
C3049       C  0.78561307  0.13954392  0.02872820     0.36500
C3050       C  0.78431919  0.10764945  0.02934596    -0.25500
C3051       C  0.75751212  0.09233283  0.03389014    -0.14800
C3052       C  0.73155650  0.11013864  0.03865236     0.37600
N3053       N  0.70378034  0.09605775  0.04441905    -0.89000
H3054       H  0.71267480  0.15492555  0.04147439     0.18700
H3055       H  0.80448757  0.09463289  0.02584581     0.18700
N3056       N  0.81351173  0.15380408  0.02371152    -0.88000
H3057       H  0.68671718  0.11211819  0.04663507     0.36100
H3058       H  0.70654839  0.08540754  0.06117761     0.41100
H3059       H  0.81127214  0.16460221  0.00695617     0.40800
H3060       H  0.83072398  0.13781207  0.02187648     0.35700
C3061       C  0.46876931  0.39594725  0.03740142    -0.26100
C3062       C  0.49579529  0.41132242  0.03417077    -0.14100
C3063       C  0.52206410  0.39368622  0.03070590     0.36500
C3064       C  0.52090640  0.36187640  0.03107607    -0.25500
C3065       C  0.49386739  0.34648350  0.03443580    -0.14800
C3066       C  0.46745518  0.36413230  0.03758942     0.37600
N3067       N  0.95406530  0.35834542  0.04371029    -0.89000
H3068       H  0.96258483  0.41759090  0.04098445     0.18700
H3069       H  0.54143987  0.34912848  0.02831718     0.18700
N3070       N  0.55001681  0.40784836  0.02622437    -0.88000
H3071       H  0.93674388  0.37422869  0.04522905     0.36100
H3072       H  0.95586849  0.34756832  0.06053405     0.41100
H3073       H  0.55783617  0.40056507  0.00946101     0.40800
H3074       H  0.56533185  0.40055849  0.03946772     0.35700
C3075       C  0.52133324  0.11262661  0.03021775    -0.26100
C3076       C  0.49453339  0.09681860  0.03346596    -0.14100
C3077       C  0.46798144  0.11427640  0.03665208     0.36500
C3078       C  0.46877606  0.14607476  0.03688466    -0.25500
C3079       C  0.49553975  0.16186342  0.03382839    -0.14800
C3080       C  0.52204902  0.14451414  0.03019681     0.37600
N3081       N  0.54988852  0.15906124  0.02607844    -0.89000
H3082       H  0.54204638  0.10018513  0.02746873     0.18700
H3083       H  0.96759236  0.16638116  0.01830511     0.18700
N3084       N  0.96224093  0.10740208  0.01384483    -0.88000
H3085       H  0.55797993  0.15216489  0.00930220     0.36100
H3086       H  0.56513342  0.15173803  0.03936788     0.41100
H3087       H  0.95819034  0.11516941  0.99622383     0.40800
H3088       H  0.94383729  0.11347569  0.02438410     0.35700
C3089       C  0.88072410  0.22726369  0.53226963    -0.26100
C3090       C  0.89583349  0.25448332  0.53580443    -0.14100
C3091       C  0.87779295  0.28064898  0.53885730     0.36500
C3092       C  0.84605327  0.27926881  0.53775420    -0.25500
C3093       C  0.83091727  0.25212495  0.53393062    -0.14800
C3094       C  0.84896525  0.22582081  0.53142066     0.37600
N3095       N  0.83529405  0.19734346  0.52795699    -0.89000
H3096       H  0.89364517  0.20670529  0.53000517     0.18700
H3097       H  0.83315751  0.29982657  0.54008242     0.18700
N3098       N  0.89147745  0.30887916  0.54340208    -0.88000
H3099       H  0.84239338  0.18303243  0.54199469     0.36100
H3100       H  0.84309229  0.18840920  0.51172233     0.41100
H3101       H  0.88359387  0.31689000  0.55992774     0.40800
H3102       H  0.88451629  0.32396265  0.52986568     0.35700
C3103       C  0.59640091  0.22927009  0.53589559    -0.26100
C3104       C  0.58064169  0.25661621  0.53166173    -0.14100
C3105       C  0.59814985  0.28224180  0.52675689     0.36500
C3106       C  0.63001871  0.28012335  0.52688851    -0.25500
C3107       C  0.64582399  0.25290650  0.53136071    -0.14800
C3108       C  0.62832848  0.22711733  0.53592013     0.37600
N3109       N  0.64286527  0.19869224  0.54082861    -0.89000
H3110       H  0.58370476  0.20929777  0.53960073     0.18700
H3111       H  0.64266786  0.30011627  0.52317042     0.18700
N3112       N  0.58363187  0.31053982  0.52138427    -0.88000
H3113       H  0.62708612  0.18187183  0.54305727     0.36100
H3114       H  0.65410051  0.20046632  0.55738881     0.41100
H3115       H  0.57234409  0.30829736  0.50489822     0.40800
H3116       H  0.59941188  0.32729256  0.51880491     0.35700
C3117       C  0.89817617  0.47104141  0.53277401    -0.26100
C3118       C  0.91290158  0.49878643  0.53471338    -0.14100
C3119       C  0.90143452  0.01952848  0.53853313     0.36500
C3120       C  0.86954954  0.01893196  0.53824609    -0.25500
C3121       C  0.84795521  0.49497749  0.53493008    -0.14800
C3122       C  0.86634732  0.46884593  0.53259767     0.37600
N3123       N  0.85282836  0.44005783  0.52969453    -0.89000
H3124       H  0.91162329  0.45075051  0.53096937     0.18700
H3125       H  0.85706201  0.03850094  0.54424690     0.18700
N3126       N  0.91636679  0.04591476  0.54674720    -0.88000
H3127       H  0.86922149  0.42310024  0.52873140     0.36100
H3128       H  0.84167458  0.44028613  0.51301478     0.41100
H3129       H  0.92784032  0.04020657  0.56271939     0.40800
H3130       H  0.90084102  0.06272954  0.55120275     0.35700
C3131       C  0.61914060  0.02215576  0.53629930    -0.26100
C3132       C  0.59756788  0.49692789  0.53321397    -0.14100
C3133       C  0.61467687  0.47002563  0.53041137     0.36500
C3134       C  0.64653855  0.47034144  0.53025709    -0.25500
C3135       C  0.66280969  0.49697804  0.53309091    -0.14800
C3136       C  0.65098640  0.02300791  0.53552737     0.37600
N3137       N  0.66543052  0.05116758  0.53853091    -0.89000
H3138       H  0.60679110  0.04294578  0.53911004     0.18700
H3139       H  0.65862473  0.44930336  0.52793465     0.18700
N3140       N  0.59990911  0.44198000  0.52780323    -0.88000
H3141       H  0.65913914  0.05994000  0.55524299     0.36100
H3142       H  0.65748536  0.06583332  0.52502625     0.41100
H3143       H  0.60723709  0.42772063  0.54182977     0.40800
H3144       H  0.60656267  0.43247865  0.51147518     0.35700
C3145       C  0.87850741  0.32550170  0.39964756    -0.26100
C3146       C  0.89454905  0.30026106  0.39144531    -0.14100
C3147       C  0.87926517  0.27562464  0.38174373     0.36500
C3148       C  0.84815133  0.27582281  0.38196502    -0.25500
C3149       C  0.83212505  0.29994149  0.39176681    -0.14800
C3150       C  0.84710333  0.32539698  0.39992814     0.37600
N3151       N  0.83047442  0.35045196  0.40915029    -0.89000
H3152       H  0.89035630  0.34432036  0.40707595     0.18700
H3153       H  0.83625472  0.25633771  0.37565190     0.18700
N3154       N  0.89546365  0.24955335  0.37340808    -0.88000
H3155       H  0.83521366  0.36908235  0.39839111     0.36100
H3156       H  0.83800141  0.35457813  0.42673208     0.41100
H3157       H  0.90623710  0.25554932  0.35744749     0.40800
H3158       H  0.88075186  0.23250065  0.36876028     0.35700
C3159       C  0.59566144  0.18848783  0.40679646    -0.26100
C3160       C  0.57990251  0.21242862  0.39575610    -0.14100
C3161       C  0.59524758  0.23437872  0.38250088     0.36500
C3162       C  0.62631408  0.23290148  0.38162035    -0.25500
C3163       C  0.64230225  0.21022738  0.39392509    -0.14800
C3164       C  0.62707939  0.18718275  0.40600995     0.37600
N3165       N  0.64350209  0.16299078  0.41753391    -0.89000
H3166       H  0.58350629  0.17161147  0.41669288     0.18700
H3167       H  0.63831275  0.25051899  0.37242725     0.18700
N3168       N  0.57916307  0.25863129  0.37064935    -0.88000
H3169       H  0.62874853  0.14776707  0.42528182     0.36100
H3170       H  0.65597654  0.17177081  0.43175686     0.41100
H3171       H  0.59380936  0.27250151  0.36130821     0.40800
H3172       H  0.56919010  0.27181986  0.38401138     0.35700
C3173       C  0.90007283  0.97669407  0.37946418    -0.26100
C3174       C  0.91673924  0.95260327  0.38913722    -0.14100
C3175       C  0.90044475  0.42685106  0.40568528     0.36500
C3176       C  0.86898911  0.42760831  0.40537759    -0.25500
C3177       C  0.85334298  0.45138936  0.39393961    -0.14800
C3178       C  0.86893925  0.97677081  0.37999817     0.37600
N3179       N  0.85215010  0.00261134  0.37141745    -0.89000
H3180       H  0.91151354  0.99635890  0.37288168     0.18700
H3181       H  0.85674089  0.41111458  0.41554412     0.18700
N3182       N  0.91673210  0.40434682  0.41933567    -0.88000
H3183       H  0.86638868  0.01865714  0.36416156     0.36100
H3184       H  0.84183104  0.01257686  0.38630886     0.41100
H3185       H  0.92918316  0.39153155  0.40714913     0.40800
H3186       H  0.90196763  0.38984412  0.42791232     0.35700
C3187       C  0.64717230  0.52359310  0.38287735    -0.26100
C3188       C  0.66266483  0.54540544  0.39572703    -0.14100
C3189       C  0.64916511  0.07006338  0.40120527     0.36500
C3190       C  0.61808187  0.06707751  0.40211549    -0.25500
C3191       C  0.60497084  0.04004340  0.39525608    -0.14800
C3192       C  0.61621680  0.52355397  0.38256497     0.37600
N3193       N  0.60091540  0.49928981  0.37126528    -0.89000
H3194       H  0.65926661  0.50532894  0.37425142     0.18700
H3195       H  0.60425541  0.08534023  0.40884553     0.18700
N3196       N  0.66232626  0.09729850  0.40925796    -0.88000
H3197       H  0.60816537  0.47922355  0.37946780     0.36100
H3198       H  0.60708841  0.49869516  0.35309328     0.41100
H3199       H  0.67491053  0.10602750  0.39508782     0.40800
H3200       H  0.67685399  0.09229472  0.42366367     0.35700
C3201       C  0.72497043  0.26597004  0.26684316    -0.26100
C3202       C  0.74578600  0.24613797  0.25634728    -0.14100
C3203       C  0.76352823  0.22711669  0.27148594     0.36500
C3204       C  0.76055956  0.22910462  0.29664433    -0.25500
C3205       C  0.73993452  0.24907800  0.30713893    -0.14800
C3206       C  0.72161698  0.26754617  0.29200701     0.37600
N3207       N  0.69937169  0.28791724  0.30142590    -0.89000
H3208       H  0.71115272  0.28035985  0.25531306     0.18700
H3209       H  0.77453362  0.21486843  0.30817831     0.18700
N3210       N  0.78486813  0.20576471  0.26208975    -0.88000
H3211       H  0.70582409  0.30969650  0.29701878     0.36100
H3212       H  0.69824983  0.28675693  0.32023024     0.41100
H3213       H  0.78520468  0.20602107  0.24324630     0.40800
H3214       H  0.77793918  0.18437384  0.26721182     0.35700
C3215       C  0.82417049  0.35548106  0.16665437    -0.26100
C3216       C  0.79845429  0.34071505  0.17448954    -0.14100
C3217       C  0.77391676  0.35753015  0.18344866     0.36500
C3218       C  0.77480395  0.38852387  0.18304060    -0.25500
C3219       C  0.79965082  0.40343372  0.17400032    -0.14800
C3220       C  0.82514806  0.38693932  0.16649206     0.37600
N3221       N  0.85172449  0.40127931  0.15815407    -0.89000
H3222       H  0.84292130  0.34253139  0.15977161     0.18700
H3223       H  0.75530125  0.40123257  0.18894055     0.18700
N3224       N  0.74714112  0.34380624  0.19194239    -0.88000
H3225       H  0.86879199  0.39580037  0.17050868     0.36100
H3226       H  0.84940309  0.42460831  0.15848752     0.41100
H3227       H  0.75229791  0.33076560  0.20720784     0.40800
H3228       H  0.73864148  0.33005088  0.17841157     0.35700
C3229       C  0.72927273  0.10706587  0.17790767    -0.26100
C3230       C  0.70414333  0.09203829  0.16942367    -0.14100
C3231       C  0.67868406  0.10833366  0.16144714     0.36500
C3232       C  0.67937050  0.13986561  0.16098199    -0.25500
C3233       C  0.70536995  0.15464935  0.16827942    -0.14800
C3234       C  0.73020114  0.13813379  0.17719537     0.37600
N3235       N  0.75703275  0.15295965  0.18436832    -0.89000
H3236       H  0.74900246  0.09446496  0.18384390     0.18700
H3237       H  0.66026964  0.15267483  0.15413266     0.18700
N3238       N  0.65269147  0.09293482  0.15335098    -0.88000
H3239       H  0.77456330  0.14495950  0.17364210     0.36100
H3240       H  0.76180643  0.14705537  0.20231234     0.41100
H3241       H  0.64797427  0.09979310  0.13560856     0.40800
H3242       H  0.63484353  0.09978534  0.16419419     0.35700
C3243       C  0.73060804  0.48193627  0.27153892    -0.26100
C3244       C  0.75048853  0.49947326  0.25820794    -0.14100
C3245       C  0.77239839  0.02096460  0.26906448     0.36500
C3246       C  0.77340689  0.01996953  0.29426894    -0.25500
C3247       C  0.75346001  0.49804786  0.30930079    -0.14800
C3248       C  0.73145093  0.48137011  0.29692269     0.37600
N3249       N  0.70980979  0.46356979  0.30937800    -0.89000
H3250       H  0.71430095  0.46852467  0.26209882     0.18700
H3251       H  0.78772336  0.03531951  0.30387503     0.18700
N3252       N  0.79027028  0.04242912  0.25664090    -0.88000
H3253       H  0.68864404  0.47283826  0.30552415     0.36100
H3254       H  0.71259301  0.46451052  0.32808934     0.41100
H3255       H  0.77606634  0.05604677  0.24601645     0.40800
H3256       H  0.80491121  0.03088870  0.24521170     0.35700
C3257       C  0.98590661  0.23650890  0.26939853    -0.26100
C3258       C  0.00399969  0.25838886  0.25893493    -0.14100
C3259       C  0.49764561  0.27611886  0.27248452     0.36500
C3260       C  0.49708955  0.27482341  0.29779633    -0.25500
C3261       C  0.99537976  0.25655907  0.30954857    -0.14800
C3262       C  0.98149429  0.23546278  0.29450258     0.37600
N3263       N  0.96303794  0.21280884  0.30474272    -0.89000
H3264       H  0.97502887  0.22026533  0.25797115     0.18700
H3265       H  0.50851239  0.29182570  0.30810029     0.18700
N3266       N  0.51345408  0.30027364  0.26124161    -0.88000
H3267       H  0.94174814  0.21490318  0.29688403     0.36100
H3268       H  0.97202741  0.19187645  0.29999263     0.41100
H3269       H  0.51215579  0.29944780  0.24244765     0.40800
H3270       H  0.53609306  0.29769258  0.26587377     0.35700
C3271       C  0.93697839  0.39877186  0.16066276    -0.26100
C3272       C  0.96177682  0.41241869  0.17151797    -0.14100
C3273       C  0.46733351  0.39034087  0.18777561     0.36500
C3274       C  0.46302948  0.35957276  0.18668314    -0.25500
C3275       C  0.95716467  0.34989990  0.17240066    -0.14800
C3276       C  0.93456383  0.36729611  0.16096595     0.37600
N3277       N  0.91069749  0.35270731  0.14843445    -0.89000
H3278       H  0.92046354  0.41251470  0.15111843     0.18700
H3279       H  0.47958632  0.34466243  0.19502973     0.18700
N3280       N  0.49315502  0.40146101  0.20010853    -0.88000
H3281       H  0.89679822  0.36848403  0.13967033     0.36100
H3282       H  0.89784143  0.34180047  0.16139230     0.41100
H3283       H  0.51223961  0.39177115  0.19237833     0.40800
H3284       H  0.49223711  0.39443175  0.21814926     0.35700
C3285       C  0.03350458  0.14988645  0.18166654    -0.26100
C3286       C  0.05890222  0.16595397  0.17536249    -0.14100
C3287       C  0.56321717  0.14565630  0.16544087     0.36500
C3288       C  0.56428926  0.11425157  0.16444975    -0.25500
C3289       C  0.05996524  0.10331840  0.17378046    -0.14800
C3290       C  0.03366530  0.11885567  0.18081708     0.37600
N3291       N  0.00636081  0.10372981  0.18603514    -0.89000
H3292       H  0.01286718  0.16172034  0.18607383     0.18700
H3293       H  0.58306885  0.10297100  0.15600976     0.18700
N3294       N  0.58770466  0.16231108  0.15603362    -0.88000
H3295       H  0.00996352  0.08938992  0.20080949     0.36100
H3296       H  0.00023130  0.09101248  0.17105226     0.41100
H3297       H  0.59582491  0.17596289  0.16980607     0.40800
H3298       H  0.57980637  0.17616432  0.14200245     0.35700
C3299       C  0.52601710  0.98223017  0.29681809    -0.26100
C3300       C  0.01138536  0.00641519  0.30632047    -0.14100
C3301       C  0.99714506  0.02997362  0.29336690     0.36500
C3302       C  0.99800800  0.03030678  0.26801091    -0.25500
C3303       C  0.01254608  0.00712896  0.25543355    -0.14800
C3304       C  0.52700790  0.48108883  0.27157481     0.37600
N3305       N  0.54649705  0.45909897  0.26069507    -0.89000
H3306       H  0.53863034  0.46598654  0.30753712     0.18700
H3307       H  0.98728713  0.04862759  0.25809284     0.18700
N3308       N  0.98174599  0.05346458  0.30597950    -0.88000
H3309       H  0.56840241  0.46389323  0.26600930     0.36100
H3310       H  0.54595998  0.46051912  0.24188089     0.41100
H3311       H  0.99132553  0.07385055  0.30111389     0.40800
H3312       H  0.95944952  0.05393990  0.30011247     0.35700
N3313       N  0.52067550  0.52605026  0.14125835    -0.36400
N3314       N  0.47450279  0.97906848  0.14253506    -0.56900
N3315       N  0.99386430  0.98684715  0.19130230    -0.36400
N3316       N  0.02948116  0.53025641  0.19689669    -0.56900
C3317       C  0.50881425  0.52683233  0.11870084     0.27200
C3318       C  0.53060203  0.55392895  0.14593204     0.27200
C3319       C  0.97013004  0.97013172  0.18549944     0.27200
C3320       C  0.99181109  0.99338980  0.21506040     0.27200
C3321       C  0.48058232  0.97977027  0.11862773     0.35800
C3322       C  0.46348486  0.95157946  0.14710165     0.35800
C3323       C  0.04742517  0.55378367  0.19332905     0.35800
C3324       C  0.03103571  0.52331458  0.22065802     0.35800
C3325       C  0.51234187  0.55500426  0.10851514    -0.21600
C3326       C  0.52576117  0.57225665  0.12582050    -0.21600
C3327       C  0.95257828  0.96589206  0.20574920    -0.21600
C3328       C  0.96619130  0.98082021  0.22445587    -0.21600
C3329       C  0.47254715  0.95315004  0.10783410    -0.22700
C3330       C  0.46200062  0.93514067  0.12590422    -0.22700
C3331       C  0.06091125  0.56175514  0.21492254    -0.22700
C3332       C  0.05078445  0.54219056  0.23224468    -0.22700
C3333       C  0.49316773  0.00425766  0.10640803    -0.18100
C3334       C  0.54295692  0.56376186  0.16806622    -0.18100
C3335       C  0.01141046  0.50340709  0.23229211    -0.18000
C3336       C  0.96828293  0.95310606  0.16428322    -0.18000
H3337       H  0.50518707  0.56256777  0.09072990     0.14900
H3338       H  0.53116641  0.59572380  0.12385113     0.14900
H3339       H  0.93295070  0.95209726  0.20711028     0.14900
H3340       H  0.95876861  0.98130840  0.24301700     0.14900
H3341       H  0.47484299  0.94699941  0.08904880     0.13100
H3342       H  0.45455480  0.91237491  0.12359195     0.13100
H3343       H  0.07529830  0.58066123  0.21802190     0.13100
H3344       H  0.05586588  0.54308671  0.25136537     0.13100
H3345       H  0.52308204  0.50712844  0.15224375     0.26400
H3346       H  0.01278160  0.98867098  0.18062976     0.26400
N3347       N  0.50949818  0.72919529  0.14055156    -0.36400
N3348       N  0.46402577  0.77687782  0.13829338    -0.56900
N3349       N  0.97679400  0.78870450  0.18694091    -0.36400
N3350       N  0.01655449  0.73919567  0.19117815    -0.56900
C3351       C  0.50225425  0.72924257  0.11669232     0.27200
C3352       C  0.52080522  0.70159026  0.14603879     0.27200
C3353       C  0.95526383  0.80869760  0.18048710     0.27200
C3354       C  0.97304289  0.78235425  0.21059777     0.27200
C3355       C  0.47390553  0.77745341  0.11523617     0.35800
C3356       C  0.45220568  0.80446079  0.14254373     0.35800
C3357       C  0.03689828  0.71686619  0.18894422     0.35800
C3358       C  0.01468821  0.74539370  0.21494597     0.35800
C3359       C  0.51005193  0.70182235  0.10672678    -0.21600
C3360       C  0.52151280  0.68428545  0.12525217    -0.21600
C3361       C  0.93734204  0.81511062  0.20018940    -0.21600
C3362       C  0.94849679  0.79831259  0.21924934    -0.21600
C3363       C  0.46717661  0.80491150  0.10449880    -0.22700
C3364       C  0.45390866  0.82222272  0.12192119    -0.22700
C3365       C  0.04824339  0.70874024  0.21150735    -0.22700
C3366       C  0.03430720  0.72705602  0.22802355    -0.22700
C3367       C  0.48889924  0.75346660  0.10369508    -0.18100
C3368       C  0.04015468  0.69971828  0.16785270    -0.18100
C3369       C  0.99305464  0.76497227  0.22493403    -0.18000
C3370       C  0.95687705  0.82687614  0.15976737    -0.18000
H3371       H  0.50709805  0.69488620  0.08816988     0.14900
H3372       H  0.52930336  0.66127525  0.12357344     0.14900
H3373       H  0.91949431  0.83179179  0.20107044     0.14900
H3374       H  0.94044606  0.79905325  0.23762871     0.14900
H3375       H  0.47235053  0.81210681  0.08631140     0.13100
H3376       H  0.44664515  0.84534034  0.11962250     0.13100
H3377       H  0.06376206  0.69048253  0.21567037     0.13100
H3378       H  0.03710168  0.72591179  0.24744972     0.13100
H3379       H  0.50839376  0.74747037  0.15209140     0.26400
H3380       H  0.99598532  0.78453186  0.17698677     0.26400
N3381       N  0.77974334  0.97590504  0.14151155    -0.36400
N3382       N  0.73082956  0.52253223  0.14084510    -0.56900
N3383       N  0.72983529  0.52157107  0.19415526    -0.36400
N3384       N  0.77652778  0.97612501  0.19452112    -0.56900
C3385       C  0.77132801  0.97583279  0.11797917     0.27200
C3386       C  0.78966706  0.94780293  0.14694616     0.27200
C3387       C  0.70807184  0.54191224  0.18900108     0.27200
C3388       C  0.72866842  0.51542162  0.21813225     0.27200
C3389       C  0.74135891  0.52357880  0.11799706     0.35800
C3390       C  0.71969215  0.55025846  0.14544798     0.35800
C3391       C  0.79721614  0.95433275  0.19120327     0.35800
C3392       C  0.77569750  0.98146146  0.21844697     0.35800
C3393       C  0.77731673  0.94801303  0.10799807    -0.21600
C3394       C  0.78839250  0.93013739  0.12637191    -0.21600
C3395       C  0.69245007  0.54865930  0.20990056    -0.21600
C3396       C  0.70538567  0.53182572  0.22829612    -0.21600
C3397       C  0.73623570  0.55160119  0.10778654    -0.22700
C3398       C  0.72301996  0.56872119  0.12531746    -0.22700
C3399       C  0.80981375  0.94570455  0.21319498    -0.22700
C3400       C  0.79641623  0.96319208  0.23048746    -0.22700
C3401       C  0.75785002  0.00008368  0.10537907    -0.18100
C3402       C  0.79900613  0.93725401  0.17002651    -0.18100
C3403       C  0.75415053  0.00002726  0.22968913    -0.18000
C3404       C  0.70691916  0.55936652  0.16763695    -0.18000
H3405       H  0.77294062  0.94094643  0.08965499     0.14900
H3406       H  0.79442683  0.90663596  0.12472722     0.14900
H3407       H  0.67485761  0.56543626  0.21191321     0.14900
H3408       H  0.69933321  0.53278861  0.24717045     0.14900
H3409       H  0.74235131  0.55917238  0.08989423     0.13100
H3410       H  0.71685513  0.59219611  0.12340710     0.13100
H3411       H  0.82566124  0.92746534  0.21648864     0.13100
H3412       H  0.80017390  0.96134855  0.24978499     0.13100
H3413       H  0.77971291  0.99445477  0.15280296     0.26400
H3414       H  0.74748752  0.51679765  0.18270997     0.26400
N3415       N  0.77293332  0.77174042  0.14287893    -0.36400
N3416       N  0.72957626  0.72385667  0.13991548    -0.56900
N3417       N  0.72663913  0.72345899  0.19271790    -0.36400
N3418       N  0.76703948  0.77114891  0.19606227    -0.56900
C3419       C  0.76641097  0.77195617  0.11891843     0.27200
C3420       C  0.78250748  0.79947785  0.14853883     0.27200
C3421       C  0.70507250  0.70410662  0.18677491     0.27200
C3422       C  0.72368345  0.72946638  0.21647241     0.27200
C3423       C  0.73972163  0.72378383  0.11698487     0.35800
C3424       C  0.71761298  0.69660265  0.14365416     0.35800
C3425       C  0.78739778  0.79272426  0.19332334     0.35800
C3426       C  0.76525328  0.76529360  0.21996358     0.35800
C3427       C  0.77324449  0.79957527  0.10899876    -0.21600
C3428       C  0.78302478  0.81707658  0.12770543    -0.21600
C3429       C  0.68800910  0.69766501  0.20689267    -0.21600
C3430       C  0.69966151  0.71383131  0.22567892    -0.21600
C3431       C  0.73317688  0.69694509  0.10582212    -0.22700
C3432       C  0.71954637  0.67950190  0.12285836    -0.22700
C3433       C  0.79886307  0.80069354  0.21571325    -0.22700
C3434       C  0.78496175  0.78307958  0.23263037    -0.22700
C3435       C  0.75416914  0.74795990  0.10581418    -0.18100
C3436       C  0.79051141  0.80961917  0.17192675    -0.18100
C3437       C  0.74375847  0.74643074  0.23039392    -0.18000
C3438       C  0.70549591  0.68674773  0.16574056    -0.18000
H3439       H  0.77052193  0.80672780  0.09037091     0.14900
H3440       H  0.78949021  0.84027810  0.12606091     0.14900
H3441       H  0.67028301  0.68148777  0.20816323     0.14900
H3442       H  0.69221261  0.71290509  0.24421923     0.14900
H3443       H  0.73840932  0.69033603  0.08753502     0.13100
H3444       H  0.71204486  0.65681222  0.12017965     0.13100
H3445       H  0.81439190  0.81847104  0.21948834     0.13100
H3446       H  0.78787224  0.78432347  0.25202460     0.13100
H3447       H  0.77231884  0.75325570  0.15438784     0.26400
H3448       H  0.74530812  0.72743177  0.18223891     0.26400
N3449       N  0.52896978  0.52472691  0.42465544    -0.36400
N3450       N  0.98364921  0.47773140  0.42621698    -0.56900
N3451       N  0.98267800  0.48242367  0.37306418    -0.36400
N3452       N  0.52888512  0.52413608  0.37138042    -0.56900
C3453       C  0.52892676  0.51445034  0.44774019     0.27200
C3454       C  0.55740046  0.53232206  0.41963650     0.27200
C3455       C  0.96554659  0.45849039  0.37745006     0.27200
C3456       C  0.98969865  0.48209691  0.34931940     0.27200
C3457       C  0.98235660  0.48682299  0.44943807     0.35800
C3458       C  0.95644516  0.46664020  0.42103834     0.35800
C3459       C  0.55084080  0.54363230  0.37569500     0.35800
C3460       C  0.52433837  0.52400238  0.34727803     0.35800
C3461       C  0.55723426  0.51642781  0.45779348    -0.21600
C3462       C  0.57534086  0.52731344  0.43997757    -0.21600
C3463       C  0.96137734  0.44263520  0.35626286    -0.21600
C3464       C  0.97687914  0.45742335  0.33848194    -0.21600
C3465       C  0.95476225  0.48079490  0.45929694    -0.22700
C3466       C  0.93809798  0.46843523  0.44117037    -0.22700
C3467       C  0.56011799  0.55644951  0.35413007    -0.22700
C3468       C  0.54325736  0.54399423  0.33607924    -0.22700
C3469       C  0.00605573  0.50020117  0.46185611    -0.18100
C3470       C  0.56776271  0.54336981  0.39722106    -0.18100
C3471       C  0.00550113  0.50474450  0.33705318    -0.18000
C3472       C  0.94789438  0.45545725  0.39822273    -0.18000
H3473       H  0.56430313  0.50981479  0.47583393     0.14900
H3474       H  0.59914257  0.53073182  0.44187611     0.14900
H3475       H  0.94722728  0.42342368  0.35370304     0.14900
H3476       H  0.97752334  0.45144835  0.31957346     0.14900
H3477       H  0.94713332  0.48575325  0.47737481     0.13100
H3478       H  0.91497454  0.46200765  0.44272451     0.13100
H3479       H  0.57871207  0.57136901  0.35156351     0.13100
H3480       H  0.54590424  0.54785622  0.31689308     0.13100
H3481       H  0.51031103  0.52797425  0.41348511     0.26400
H3482       H  0.98469078  0.50039169  0.38479083     0.26400
N3483       N  0.50477078  0.73418022  0.42241529    -0.36400
N3484       N  0.95365428  0.78528824  0.41756900    -0.56900
N3485       N  0.95440453  0.78532902  0.36449448    -0.36400
N3486       N  0.50089101  0.72979122  0.36937897    -0.56900
C3487       C  0.50565452  0.74422093  0.44544096     0.27200
C3488       C  0.53252433  0.72370839  0.41717256     0.27200
C3489       C  0.93093674  0.80388379  0.36857722     0.27200
C3490       C  0.96096473  0.78724983  0.34071470     0.27200
C3491       C  0.95455185  0.77734059  0.44122360     0.35800
C3492       C  0.92553737  0.79564863  0.41304942     0.35800
C3493       C  0.52401704  0.71080153  0.37375922     0.35800
C3494       C  0.49375164  0.72724805  0.34574531     0.35800
C3495       C  0.53386640  0.73913084  0.45528991    -0.21600
C3496       C  0.55096063  0.72654292  0.43736999    -0.21600
C3497       C  0.92223369  0.81786347  0.34712955    -0.21600
C3498       C  0.94144774  0.80761071  0.32954781    -0.21600
C3499       C  0.92742380  0.78398463  0.45203971    -0.22700
C3500       C  0.90891371  0.79525351  0.43414118    -0.22700
C3501       C  0.53151790  0.69561953  0.35281711    -0.22700
C3502       C  0.51205247  0.70579752  0.33507527    -0.22700
C3503       C  0.97958570  0.76414266  0.45317584    -0.18100
C3504       C  0.54188462  0.71157171  0.39479912    -0.18100
C3505       C  0.98232522  0.76923061  0.32855267    -0.18000
C3506       C  0.91415117  0.80434842  0.39003844    -0.18000
H3507       H  0.54153587  0.74459319  0.47330596     0.14900
H3508       H  0.57436158  0.72018074  0.43911884     0.14900
H3509       H  0.90331921  0.83302417  0.34434880     0.14900
H3510       H  0.94033498  0.81347508  0.31055021     0.14900
H3511       H  0.92131818  0.78024798  0.47069080     0.13100
H3512       H  0.88574117  0.80201965  0.43641139     0.13100
H3513       H  0.55002230  0.67997593  0.35036509     0.13100
H3514       H  0.51261267  0.69957467  0.31621795     0.13100
H3515       H  0.48578889  0.73284136  0.41155957     0.26400
H3516       H  0.96203784  0.76901751  0.37658618     0.26400
N3517       N  0.73781668  0.02169596  0.42347352    -0.36400
N3518       N  0.78508942  0.97562128  0.42268002    -0.56900
N3519       N  0.78375557  0.97928595  0.36979336    -0.36400
N3520       N  0.73695211  0.02242576  0.37026997    -0.56900
C3521       C  0.73757655  0.01121521  0.44649442     0.27200
C3522       C  0.71002517  0.03274271  0.41866192     0.27200
C3523       C  0.80327022  0.95650728  0.37399049     0.27200
C3524       C  0.77562055  0.97821201  0.34623738     0.27200
C3525       C  0.78579611  0.98333860  0.44626604     0.35800
C3526       C  0.81258223  0.96432443  0.41762990     0.35800
C3527       C  0.71617359  0.04370812  0.37480027     0.35800
C3528       C  0.74118667  0.02239758  0.34620076     0.35800
C3529       C  0.70991809  0.01679553  0.45675956    -0.21600
C3530       C  0.69239800  0.03003224  0.43913557    -0.21600
C3531       C  0.80783800  0.94056479  0.35291282    -0.21600
C3532       C  0.79002012  0.95404809  0.33538333    -0.21600
C3533       C  0.81331152  0.97589134  0.45648708    -0.22700
C3534       C  0.83051372  0.96428066  0.43821862    -0.22700
C3535       C  0.70726430  0.05775531  0.35342856    -0.22700
C3536       C  0.72334158  0.04438472  0.33525180    -0.22700
C3537       C  0.76177851  0.99699271  0.45861150    -0.18100
C3538       C  0.69953840  0.04425516  0.39618212    -0.18100
C3539       C  0.75784457  0.00014543  0.33399633    -0.18000
C3540       C  0.82182091  0.95460821  0.39455084    -0.18000
H3541       H  0.70279230  0.01104404  0.47482979     0.14900
H3542       H  0.66913693  0.03657705  0.44119279     0.14900
H3543       H  0.82349803  0.92210516  0.35026348     0.14900
H3544       H  0.78898709  0.94769693  0.31656636     0.14900
H3545       H  0.82053602  0.97945112  0.47493613     0.13100
H3546       H  0.85360362  0.95682347  0.43993487     0.13100
H3547       H  0.68947138  0.07433089  0.35107891     0.13100
H3548       H  0.72068647  0.04895660  0.31612058     0.13100
H3549       H  0.75630451  0.02246526  0.41215707     0.26400
H3550       H  0.78079939  0.99728307  0.38140658     0.26400
N3551       N  0.70700713  0.72924611  0.42417483    -0.36400
N3552       N  0.75194957  0.77580869  0.42135174    -0.56900
N3553       N  0.75232687  0.76791800  0.36876793    -0.36400
N3554       N  0.70768492  0.72413619  0.37095657    -0.56900
C3555       C  0.70657866  0.74041400  0.44690063     0.27200
C3556       C  0.67957557  0.71798620  0.41970924     0.27200
C3557       C  0.76972109  0.79199166  0.37168631     0.27200
C3558       C  0.74562732  0.76620509  0.34497892     0.27200
C3559       C  0.75322828  0.76939474  0.44525408     0.35800
C3560       C  0.77844980  0.78820538  0.41584133     0.35800
C3561       C  0.68641106  0.70429906  0.37631208     0.35800
C3562       C  0.71281322  0.72202104  0.34703367     0.35800
C3563       C  0.67920562  0.73492400  0.45742943    -0.21600
C3564       C  0.66200141  0.72120068  0.44017907    -0.21600
C3565       C  0.77420422  0.80594084  0.34961442    -0.21600
C3566       C  0.75884091  0.78975361  0.33270686    -0.21600
C3567       C  0.78008792  0.77865829  0.45509796    -0.22700
C3568       C  0.79625010  0.79027415  0.43638494    -0.22700
C3569       C  0.67807388  0.68902343  0.35561558    -0.22700
C3570       C  0.69510830  0.70005003  0.33704847    -0.22700
C3571       C  0.73019818  0.75565356  0.45832591    -0.18100
C3572       C  0.66944569  0.70558837  0.39759496    -0.18100
C3573       C  0.72998709  0.74265667  0.33387418    -0.18000
C3574       C  0.78706479  0.79707127  0.39241244    -0.18000
H3575       H  0.67198723  0.74118640  0.47535357     0.14900
H3576       H  0.63900876  0.71456201  0.44245719     0.14900
H3577       H  0.78849305  0.82478706  0.34597536     0.14900
H3578       H  0.75865537  0.79412977  0.31345818     0.14900
H3579       H  0.78761850  0.77646550  0.47366336     0.13100
H3580       H  0.81865854  0.79894863  0.43777513     0.13100
H3581       H  0.66021009  0.67305553  0.35386602     0.13100
H3582       H  0.69313308  0.69414072  0.31817810     0.13100
H3583       H  0.72545971  0.72826367  0.41284082     0.26400
H3584       H  0.75001864  0.75104618  0.38159531     0.26400
O3585       O  0.96137284  0.52430231  0.53280021    -0.71500
O3586       O  0.54834757  0.52213089  0.53534706    -0.71800
O3587       O  0.00634252  0.52481896  0.49982229    -0.71600
O3588       O  0.00309822  0.52577893  0.56826672    -0.71600
O3589       O  0.01389140  0.96950631  0.56499252    -0.71600
O3590       O  0.00907649  0.96943535  0.49621601    -0.71600
O3591       O  0.55416763  0.97123436  0.53299444    -0.71500
O3592       O  0.96807561  0.96954834  0.53194061    -0.71700
V3593       V  0.00474629  0.52422783  0.53404276     1.35200
V3594       V  0.01132909  0.97029634  0.53057044     1.35200
C3595       C  0.95282415  0.99390517  0.53083001     0.77700
C3596       C  0.56894381  0.99533136  0.53436414     0.77800
C3597       C  0.01040406  0.99386002  0.48452985     0.77600
C3598       C  0.01252769  0.99396963  0.57646455     0.77600
O3599       O  0.93870948  0.73679027  0.52486931    -0.71500
O3600       O  0.52730084  0.73611163  0.53246952    -0.71800
O3601       O  0.98164041  0.73410683  0.55960736    -0.71600
O3602       O  0.98161717  0.73740883  0.49075005    -0.71600
O3603       O  0.98012502  0.78612888  0.49216066    -0.71600
O3604       O  0.98439453  0.78253758  0.56043342    -0.71600
O3605       O  0.52494934  0.78446366  0.52888276    -0.71500
O3606       O  0.93911447  0.78523537  0.52734795    -0.71700
V3607       V  0.98176346  0.73651243  0.52517064     1.35200
V3608       V  0.98234727  0.78315204  0.52628232     1.35200
C3609       C  0.92398081  0.76135199  0.52606621     0.77700
C3610       C  0.54114947  0.76075678  0.53081844     0.77800
C3611       C  0.98335222  0.75794365  0.57180988     0.77600
C3612       C  0.98008942  0.76245849  0.47983684     0.77600
O3613       O  0.79847886  0.51878956  0.53329590    -0.71500
O3614       O  0.71223033  0.52008854  0.53407172    -0.71800
O3615       O  0.75624111  0.51950629  0.56798285    -0.71600
O3616       O  0.75473781  0.51902652  0.49930844    -0.71600
O3617       O  0.76211380  0.97145126  0.49669659    -0.71600
O3618       O  0.76030827  0.96983243  0.56542137    -0.71600
O3619       O  0.71774404  0.97154268  0.53029897    -0.71500
O3620       O  0.80437204  0.96990712  0.53161545    -0.71700
V3621       V  0.75540634  0.51840839  0.53365361     1.35200
V3622       V  0.76109835  0.97162459  0.53104167     1.35200
C3623       C  0.81934949  0.99393294  0.53113614     0.77700
C3624       C  0.70272714  0.99603988  0.53143711     0.77800
C3625       C  0.76112130  0.99385714  0.57743537     0.77600
C3626       C  0.76147081  0.99614118  0.48533482     0.77600
O3627       O  0.77646460  0.73627361  0.52936830    -0.71500
O3628       O  0.69043074  0.73684353  0.53472573    -0.71800
O3629       O  0.72978861  0.73420779  0.49794515    -0.71600
O3630       O  0.73760471  0.73868713  0.56617597    -0.71600
O3631       O  0.73362331  0.78712556  0.56445441    -0.71600
O3632       O  0.73231262  0.78276274  0.49552279    -0.71600
O3633       O  0.68945638  0.78508301  0.53010439    -0.71500
O3634       O  0.77597336  0.78483676  0.52942144    -0.71700
V3635       V  0.73350904  0.73746698  0.53204129     1.35200
V3636       V  0.73280890  0.78406918  0.52994261     1.35200
C3637       C  0.79113861  0.76044669  0.52886309     0.77700
C3638       C  0.67492143  0.76095858  0.53270487     0.77800
C3639       C  0.73062015  0.75767264  0.48506286     0.77600
C3640       C  0.73645591  0.76345168  0.57714243     0.77600
O3641       O  0.51804171  0.50209346  0.99985295    -0.71500
O3642       O  0.51855997  0.50545259  0.06836997    -0.71800
O3643       O  0.51737184  0.96021017  0.03599812    -0.71600
O3644       O  0.51667136  0.54722987  0.03242561    -0.71600
O3645       O  0.46841208  0.54643939  0.03515892    -0.71600
O3646       O  0.46916913  0.96181393  0.03197223    -0.71600
O3647       O  0.47020773  0.50112978  0.06858198    -0.71500
O3648       O  0.46945707  0.50515242  0.99982525    -0.71700
V3649       V  0.51727177  0.50385942  0.03409673     1.35200
V3650       V  0.47071320  0.50326628  0.03417356     1.35200
C3651       C  0.49367109  0.50364071  0.98817297     0.77700
C3652       C  0.49461731  0.50289998  0.08015913     0.77800
C3653       C  0.49299365  0.94597940  0.03395111     0.77600
C3654       C  0.49195823  0.56184401  0.03328160     0.77600
O3655       O  0.46420585  0.79758508  0.03001524    -0.71500
O3656       O  0.46491813  0.71057815  0.03159840    -0.71800
O3657       O  0.46475969  0.75505539  0.06508091    -0.71600
O3658       O  0.46355952  0.75295019  0.99642010    -0.71600
O3659       O  0.51202252  0.75582361  0.99608862    -0.71600
O3660       O  0.51328594  0.75141223  0.06510221    -0.71600
O3661       O  0.51320715  0.71056570  0.02911288    -0.71500
O3662       O  0.51257393  0.79684262  0.03218709    -0.71700
V3663       V  0.98848838  0.76399725  0.02766601     1.35200
V3664       V  0.51183837  0.75367453  0.03059913     1.35200
C3665       C  0.48839331  0.81226122  0.03143742     0.77700
C3666       C  0.48935544  0.69554172  0.03022378     0.77800
C3667       C  0.48908954  0.75316308  0.07682126     0.77600
C3668       C  0.48750654  0.75435186  0.98452377     0.77600
O3669       O  0.78004655  0.54227879  0.03401044    -0.71500
O3670       O  0.77993946  0.95596621  0.03300510    -0.71800
O3671       O  0.78035006  0.49929706  0.99939182    -0.71600
O3672       O  0.77977325  0.49805847  0.06800207    -0.71600
O3673       O  0.73116355  0.50046025  0.06745619    -0.71600
O3674       O  0.73169714  0.49976179  0.99882079    -0.71600
O3675       O  0.73151022  0.95735630  0.03270388    -0.71500
O3676       O  0.73165318  0.54314513  0.03264385    -0.71700
V3677       V  0.77900788  0.49890471  0.03367364     1.35200
V3678       V  0.73238392  0.49992645  0.03311048     1.35200
C3679       C  0.75582541  0.55774305  0.03338767     0.77700
C3680       C  0.75557540  0.94166723  0.03287099     0.77800
C3681       C  0.75613369  0.49950679  0.98748781     0.77600
C3682       C  0.75540352  0.49929375  0.07939255     0.77600
O3683       O  0.78073552  0.70682263  0.03299357    -0.71500
O3684       O  0.77829332  0.79338988  0.03399266    -0.71800
O3685       O  0.77924321  0.74934001  0.06786432    -0.71600
O3686       O  0.78006478  0.75148472  0.99919350    -0.71600
O3687       O  0.73149846  0.74963817  0.99849780    -0.71600
O3688       O  0.73061344  0.74919647  0.06707267    -0.71600
O3689       O  0.72990515  0.79289320  0.03266640    -0.71500
O3690       O  0.73233828  0.70631013  0.03290824    -0.71700
V3691       V  0.77863837  0.75018821  0.03350338     1.35200
V3692       V  0.73204268  0.74956645  0.03280795     1.35200
C3693       C  0.75693456  0.69153171  0.03289884     0.77700
C3694       C  0.75369938  0.80814977  0.03322657     0.77800
C3695       C  0.75475437  0.74896952  0.07911431     0.77600
C3696       C  0.75590961  0.75093643  0.98720546     0.77600
N3697       N  0.52032332  0.98156459  0.92615455    -0.36400
N3698       N  0.47037514  0.52702897  0.92566541    -0.56900
N3699       N  0.98937505  0.53865292  0.87371220    -0.36400
N3700       N  0.03478512  0.99314457  0.86981748    -0.56900
C3701       C  0.51007305  0.98059855  0.94908378     0.27200
C3702       C  0.53030578  0.95359932  0.92074371     0.27200
C3703       C  0.96673250  0.55799948  0.87836164     0.27200
C3704       C  0.98675250  0.53039878  0.85031770     0.27200
C3705       C  0.47918390  0.52777084  0.94908591     0.35800
C3706       C  0.45794159  0.55426968  0.92070291     0.35800
C3707       C  0.05715111  0.97332372  0.87445022     0.35800
C3708       C  0.03678233  0.00076912  0.84629268     0.35800
C3709       C  0.51471658  0.95219323  0.95878350    -0.21600
C3710       C  0.52699437  0.93496622  0.94076106    -0.21600
C3711       C  0.94942218  0.56241902  0.85775401    -0.21600
C3712       C  0.96173948  0.54452038  0.84010112    -0.21600
C3713       C  0.47144097  0.55508291  0.95927633    -0.22700
C3714       C  0.45836142  0.57207855  0.94116980    -0.22700
C3715       C  0.07373188  0.96830245  0.85379982    -0.22700
C3716       C  0.06120164  0.98626315  0.83599214    -0.22700
C3717       C  0.49356262  0.50376891  0.96144128    -0.18100
C3718       C  0.05782535  0.95479605  0.89503060    -0.18100
C3719       C  0.00802832  0.51287783  0.83755034    -0.18000
C3720       C  0.96567608  0.57637618  0.89884640    -0.18000
H3721       H  0.50879813  0.94440662  0.97665934     0.14900
H3722       H  0.53254594  0.91132217  0.94230434     0.14900
H3723       H  0.93070258  0.57793869  0.85547795     0.14900
H3724       H  0.95402671  0.54326750  0.82156359     0.14900
H3725       H  0.47550904  0.56227278  0.97763369     0.13100
H3726       H  0.45014146  0.59492933  0.94290925     0.13100
H3727       H  0.09195439  0.95226760  0.85160515     0.13100
H3728       H  0.06800629  0.98700207  0.81727953     0.13100
H3729       H  0.52151045  0.00067090  0.91525313     0.26400
H3730       H  0.00805573  0.53577433  0.88479298     0.26400
N3731       N  0.46562185  0.72987711  0.92177048    -0.36400
N3732       N  0.50555841  0.78035220  0.92182767    -0.56900
N3733       N  0.02940113  0.79154173  0.86660487    -0.36400
N3734       N  0.99028027  0.74280859  0.86647965    -0.56900
C3735       C  0.47507083  0.72985752  0.94514083     0.27200
C3736       C  0.45728827  0.70156604  0.91650663     0.27200
C3737       C  0.05225379  0.81005503  0.87114256     0.27200
C3738       C  0.02957367  0.78542977  0.84263932     0.27200
C3739       C  0.49817181  0.77987179  0.94547204     0.35800
C3740       C  0.51599090  0.80807248  0.91730917     0.35800
C3741       C  0.96977790  0.72180016  0.87113242     0.35800
C3742       C  0.98741427  0.75022540  0.84284643     0.35800
C3743       C  0.47165971  0.70156347  0.95510911    -0.21600
C3744       C  0.46083413  0.68361152  0.93699048    -0.21600
C3745       C  0.06729219  0.81593874  0.84985634    -0.21600
C3746       C  0.05318650  0.80009339  0.83187639    -0.21600
C3747       C  0.50457013  0.80704876  0.95614325    -0.22700
C3748       C  0.51555652  0.82508258  0.93821537    -0.22700
C3749       C  0.95353267  0.71578508  0.85035409    -0.22700
C3750       C  0.96436318  0.73420520  0.83248443    -0.22700
C3751       C  0.48668216  0.75477404  0.95764862    -0.18100
C3752       C  0.96999334  0.70392857  0.89221858    -0.18100
C3753       C  0.00771289  0.76858339  0.83021777    -0.18000
C3754       C  0.05509254  0.82689223  0.89248166    -0.18000
H3755       H  0.47718982  0.69438607  0.97334638     0.14900
H3756       H  0.45614624  0.65996390  0.93877564     0.14900
H3757       H  0.08559957  0.83123503  0.84741749     0.14900
H3758       H  0.05896328  0.80031643  0.81292874     0.14900
H3759       H  0.50125632  0.81336335  0.97479116     0.13100
H3760       H  0.52252515  0.84803373  0.94043002     0.13100
H3761       H  0.93648484  0.69903943  0.84815912     0.13100
H3762       H  0.95709176  0.73466150  0.81379264     0.13100
H3763       H  0.46329449  0.74856943  0.91051933     0.26400
H3764       H  0.01199644  0.78781265  0.87853914     0.26400
N3765       N  0.77920916  0.97721238  0.92556970    -0.36400
N3766       N  0.73389199  0.52553110  0.92588279    -0.56900
N3767       N  0.73476881  0.52682329  0.87314990    -0.36400
N3768       N  0.78357870  0.97976579  0.87247360    -0.56900
C3769       C  0.76752904  0.97623620  0.94804531     0.27200
C3770       C  0.78867594  0.94906541  0.92029750     0.27200
C3771       C  0.71162163  0.54524135  0.87843433     0.27200
C3772       C  0.73181334  0.51902452  0.84971170     0.27200
C3773       C  0.74348287  0.52540082  0.94906673     0.35800
C3774       C  0.72271797  0.55339171  0.92155520     0.35800
C3775       C  0.80412230  0.95835345  0.87780373     0.35800
C3776       C  0.78573469  0.98562652  0.84861510     0.35800
C3777       C  0.77028196  0.94751182  0.95750858    -0.21600
C3778       C  0.78316801  0.93018541  0.93983053    -0.21600
C3779       C  0.69358318  0.54945473  0.85820729    -0.21600
C3780       C  0.70602592  0.53233345  0.84010133    -0.21600
C3781       C  0.73763780  0.55286628  0.95974429    -0.22700
C3782       C  0.72482970  0.57083285  0.94214892    -0.22700
C3783       C  0.82010240  0.95093028  0.85722313    -0.22700
C3784       C  0.80856575  0.96843816  0.83869810    -0.22700
C3785       C  0.75631410  0.50027208  0.96086469    -0.18100
C3786       C  0.80220529  0.93991658  0.89841784    -0.18100
C3787       C  0.75339930  0.50252597  0.83652939    -0.18000
C3788       C  0.71062163  0.56308154  0.89918058    -0.18000
H3789       H  0.76292332  0.93970687  0.97501566     0.14900
H3790       H  0.78791131  0.90635927  0.94130134     0.14900
H3791       H  0.67427561  0.56433599  0.85649368     0.14900
H3792       H  0.69794239  0.53112880  0.82165995     0.14900
H3793       H  0.74261971  0.55940621  0.97811653     0.13100
H3794       H  0.71782487  0.59400066  0.94434066     0.13100
H3795       H  0.83665047  0.93308020  0.85542709     0.13100
H3796       H  0.81482186  0.96713774  0.81988109     0.13100
H3797       H  0.78220313  0.99644078  0.91510862     0.26400
H3798       H  0.75392628  0.52432063  0.88383126     0.26400
N3799       N  0.73393789  0.72762635  0.92508531    -0.36400
N3800       N  0.77683477  0.77577969  0.92494912    -0.56900
N3801       N  0.77208249  0.77710409  0.87188038    -0.36400
N3802       N  0.73225816  0.72920116  0.87189934    -0.56900
C3803       C  0.74441189  0.72683714  0.94807623     0.27200
C3804       C  0.72478228  0.69967983  0.91982023     0.27200
C3805       C  0.79514434  0.79538242  0.87624155     0.27200
C3806       C  0.77253770  0.77032282  0.84808145     0.27200
C3807       C  0.76826378  0.77614187  0.94832956     0.35800
C3808       C  0.78705985  0.80346774  0.92003064     0.35800
C3809       C  0.71142542  0.70867114  0.87668420     0.35800
C3810       C  0.72979897  0.73602419  0.84818904     0.35800
C3811       C  0.74111806  0.69843784  0.95785189    -0.21600
C3812       C  0.72910645  0.68111845  0.93988829    -0.21600
C3813       C  0.81070952  0.80027408  0.85503733    -0.21600
C3814       C  0.79656211  0.78419299  0.83724126    -0.21600
C3815       C  0.77371568  0.80376916  0.95853703    -0.22700
C3816       C  0.78523487  0.82129970  0.94048633    -0.22700
C3817       C  0.69535202  0.70234608  0.85586036    -0.22700
C3818       C  0.70679798  0.72001673  0.83777860    -0.22700
C3819       C  0.75611005  0.75145182  0.96052492    -0.18100
C3820       C  0.71232462  0.69055364  0.89752254    -0.18100
C3821       C  0.75019333  0.75419418  0.83573637    -0.18000
C3822       C  0.79793113  0.81271736  0.89727637    -0.18000
H3823       H  0.74732809  0.69085584  0.97585369     0.14900
H3824       H  0.72405666  0.65754132  0.94153488     0.14900
H3825       H  0.82933466  0.81515311  0.85248759     0.14900
H3826       H  0.80248773  0.78381162  0.81832270     0.14900
H3827       H  0.76910287  0.81077197  0.97684176     0.13100
H3828       H  0.79126659  0.84457380  0.94229203     0.13100
H3829       H  0.67836864  0.68552156  0.85371948     0.13100
H3830       H  0.70000499  0.71992414  0.81897559     0.13100
H3831       H  0.73131343  0.74669648  0.91425021     0.26400
H3832       H  0.75430413  0.77417079  0.88361214     0.26400
N3833       N  0.53202067  0.01685614  0.64469854    -0.36400
N3834       N  0.52809812  0.02555703  0.69777165    -0.56900
N3835       N  0.99211540  0.98286651  0.69460530    -0.36400
N3836       N  0.99272237  0.97663364  0.64102556    -0.56900
C3837       C  0.55168678  0.03854528  0.64952059     0.27200
C3838       C  0.52732254  0.01671218  0.62047406     0.27200
C3839       C  0.99166278  0.99504711  0.71699685     0.27200
C3840       C  0.96426998  0.97295872  0.69001169     0.27200
C3841       C  0.55703443  0.03159625  0.69371261     0.35800
C3842       C  0.52641669  0.01784686  0.72133936     0.35800
C3843       C  0.99691460  0.97453743  0.61694493     0.35800
C3844       C  0.97090781  0.95760700  0.64686339     0.35800
C3845       C  0.55993296  0.05251000  0.62825473    -0.21600
C3846       C  0.54455948  0.03884786  0.60990234    -0.21600
C3847       C  0.96367402  0.99187639  0.72707597    -0.21600
C3848       C  0.94629707  0.97815324  0.71001709    -0.21600
C3849       C  0.57369554  0.02841711  0.71488041    -0.22700
C3850       C  0.55408741  0.01988233  0.73254013    -0.22700
C3851       C  0.97781183  0.95332015  0.60743889    -0.22700
C3852       C  0.96136946  0.94265776  0.62638610    -0.22700
C3853       C  0.56846838  0.03944703  0.67097760    -0.18100
C3854       C  0.01423448  0.99485548  0.60335684    -0.18100
C3855       C  0.95421437  0.95980668  0.66825273    -0.18000
C3856       C  0.01624919  0.00827246  0.72869547    -0.18000
H3857       H  0.57705077  0.06919302  0.62608563     0.14900
H3858       H  0.54758086  0.04369967  0.59094887     0.14900
H3859       H  0.94273734  0.50142490  0.74679933     0.14900
H3860       H  0.92292028  0.97286824  0.71214083     0.14900
H3861       H  0.59748318  0.03162806  0.71728491     0.13100
H3862       H  0.55727122  0.50820036  0.74842754     0.13100
H3863       H  0.97411124  0.94761760  0.58872977     0.13100
H3864       H  0.94274887  0.92752634  0.62495326     0.13100
H3865       H  0.52716453  0.99990363  0.65691791     0.26400
H3866       H  0.01078506  0.97999243  0.68365444     0.26400
N3867       N  0.51338781  0.74501805  0.63904954    -0.36400
N3868       N  0.51560459  0.74377759  0.69200727    -0.56900
N3869       N  0.97179408  0.78491024  0.68971891    -0.36400
N3870       N  0.96578674  0.78040876  0.63577270    -0.56900
C3871       C  0.53696617  0.72659524  0.64341162     0.27200
C3872       C  0.50576710  0.74211736  0.61548490     0.27200
C3873       C  0.97422871  0.77581250  0.71308473     0.27200
C3874       C  0.94258419  0.79110253  0.68546291     0.27200
C3875       C  0.54445723  0.73766530  0.68694740     0.35800
C3876       C  0.51497679  0.75199650  0.71543707     0.35800
C3877       C  0.96823717  0.78017397  0.61147696     0.35800
C3878       C  0.94543737  0.80165564  0.64130667     0.35800
C3879       C  0.54472812  0.71160026  0.62250048    -0.21600
C3880       C  0.52499296  0.72129347  0.60483377    -0.21600
C3881       C  0.94646602  0.77660669  0.72392291    -0.21600
C3882       C  0.92636551  0.78603793  0.70641218    -0.21600
C3883       C  0.56222261  0.74167787  0.70734324    -0.22700
C3884       C  0.54337957  0.75059902  0.72551424    -0.22700
C3885       C  0.94917598  0.80188359  0.60141761    -0.22700
C3886       C  0.93476792  0.81546127  0.62035391    -0.22700
C3887       C  0.55474149  0.72751789  0.66438566    -0.18100
C3888       C  0.98437332  0.75774321  0.59876340    -0.18100
C3889       C  0.93027260  0.80187120  0.66339202    -0.18000
C3890       C  0.00116567  0.76675156  0.72454186    -0.18000
H3891       H  0.56362662  0.69645962  0.61997263     0.14900
H3892       H  0.52608912  0.71472033  0.58611382     0.14900
H3893       H  0.94123816  0.77049681  0.74235165     0.14900
H3894       H  0.90249082  0.78889537  0.70889398     0.14900
H3895       H  0.58619360  0.73829733  0.70903242     0.13100
H3896       H  0.54978084  0.75549550  0.74394620     0.13100
H3897       H  0.94411041  0.80614835  0.58257658     0.13100
H3898       H  0.91661081  0.83177737  0.61882623     0.13100
H3899       H  0.50675224  0.76216858  0.65056227     0.26400
H3900       H  0.98934408  0.78849846  0.67776558     0.26400
N3901       N  0.73383848  0.00981953  0.64068266    -0.36400
N3902       N  0.78653570  0.97564687  0.64099026    -0.56900
N3903       N  0.78707571  0.97586909  0.69512998    -0.36400
N3904       N  0.73369552  0.01134302  0.69449922    -0.56900
C3905       C  0.74041347  0.01219745  0.61686308     0.27200
C3906       C  0.71156333  0.02953516  0.64526391     0.27200
C3907       C  0.81601465  0.97018602  0.68983421     0.27200
C3908       C  0.77607580  0.48591237  0.72018210     0.27200
C3909       C  0.78160039  0.97442099  0.61689461     0.35800
C3910       C  0.81043887  0.95794896  0.64589128     0.35800
C3911       C  0.70519791  0.01942415  0.68938545     0.35800
C3912       C  0.72573079  0.50885034  0.71936597     0.35800
C3913       C  0.72177278  0.03395134  0.60630138    -0.21600
C3914       C  0.70354233  0.04480622  0.62425557    -0.21600
C3915       C  0.82294652  0.47290061  0.71286241    -0.21600
C3916       C  0.80427841  0.48362545  0.73050680    -0.21600
C3917       C  0.80261065  0.95546909  0.60635870    -0.22700
C3918       C  0.82081941  0.94498215  0.62475658    -0.22700
C3919       C  0.68060836  0.52672606  0.71111567    -0.22700
C3920       C  0.69817145  0.51520480  0.72942887    -0.22700
C3921       C  0.76082617  0.99323894  0.60436020    -0.18100
C3922       C  0.69482388  0.02980723  0.66663663    -0.18100
C3923       C  0.75052273  0.49693956  0.73207831    -0.18000
C3924       C  0.82698834  0.95920572  0.66758846    -0.18000
H3925       H  0.72018641  0.04058728  0.58752267     0.14900
H3926       H  0.68545235  0.06105856  0.62191601     0.14900
H3927       H  0.84682015  0.46924341  0.71495092     0.14900
H3928       H  0.81086805  0.48991217  0.74860937     0.14900
H3929       H  0.80582633  0.95094528  0.58738579     0.13100
H3930       H  0.84070402  0.93106020  0.62263405     0.13100
H3931       H  0.65733990  0.53332354  0.71284863     0.13100
H3932       H  0.69130003  0.51133467  0.74788308     0.13100
H3933       H  0.74003295  0.99260239  0.65245372     0.26400
H3934       H  0.76878789  0.97106332  0.68417191     0.26400
N3935       N  0.71654043  0.74410702  0.64182290    -0.36400
N3936       N  0.76307588  0.78388224  0.64003100    -0.56900
N3937       N  0.76608172  0.78409164  0.69457863    -0.36400
N3938       N  0.71881582  0.74171472  0.69577277    -0.56900
C3939       C  0.72176009  0.74267228  0.61773475     0.27200
C3940       C  0.69836548  0.72148943  0.64759233     0.27200
C3941       C  0.79386146  0.79265129  0.68848917     0.27200
C3942       C  0.76740037  0.77492499  0.71801851     0.27200
C3943       C  0.75670922  0.78501088  0.61607994     0.35800
C3944       C  0.78498547  0.80343101  0.64431523     0.35800
C3945       C  0.69130896  0.73106549  0.69135652     0.35800
C3946       C  0.71890108  0.75006326  0.71920717     0.35800
C3947       C  0.70625804  0.71855319  0.60825736    -0.21600
C3948       C  0.69156182  0.70531284  0.62710533    -0.21600
C3949       C  0.81265301  0.78988090  0.70861299    -0.21600
C3950       C  0.79577837  0.77915693  0.72731388    -0.21600
C3951       C  0.77474747  0.80594694  0.60498333    -0.22700
C3952       C  0.79273476  0.81748145  0.62286003    -0.22700
C3953       C  0.67416988  0.73204685  0.71217679    -0.22700
C3954       C  0.69198676  0.74354017  0.73001155    -0.22700
C3955       C  0.73790335  0.76426056  0.60421783    -0.18100
C3956       C  0.68131148  0.72083215  0.66872000    -0.18100
C3957       C  0.74364297  0.76238266  0.73103766    -0.18000
C3958       C  0.80301684  0.80262743  0.66533517    -0.18000
H3959       H  0.70390222  0.71171927  0.58969863     0.14900
H3960       H  0.67575965  0.68725889  0.62564459     0.14900
H3961       H  0.83624470  0.79476406  0.70979470     0.14900
H3962       H  0.80377040  0.77398369  0.74540270     0.14900
H3963       H  0.77640403  0.81105928  0.58593121     0.13100
H3964       H  0.81089433  0.83289284  0.62016093     0.13100
H3965       H  0.65122810  0.72520185  0.71434063     0.13100
H3966       H  0.68565604  0.74742236  0.74857881     0.13100
H3967       H  0.71982357  0.76234124  0.65302066     0.26400
H3968       H  0.74710221  0.78565077  0.68363353     0.26400
C3969       C  0.88232253  0.78087574  0.65173344    -0.26100
C3970       C  0.89765828  0.80492989  0.66170105    -0.14100
C3971       C  0.88196521  0.82977492  0.67102533     0.36500
C3972       C  0.85071292  0.82972283  0.67090695    -0.25500
C3973       C  0.83538961  0.80509247  0.66165050    -0.14800
C3974       C  0.85139927  0.78055114  0.65177934     0.37600
N3975       N  0.83689563  0.75431040  0.64294316    -0.89000
H3976       H  0.89460497  0.76166268  0.64473120     0.18700
H3977       H  0.83828187  0.84794141  0.67913060     0.18700
N3978       N  0.89738094  0.85473817  0.68097977    -0.88000
H3979       H  0.82321853  0.76031751  0.62831428     0.36100
H3980       H  0.82366168  0.74545078  0.65671479     0.41100
H3981       H  0.91136674  0.86331265  0.66765130     0.40800
H3982       H  0.91072950  0.84719821  0.69544387     0.35700
C3983       C  0.60087078  0.69668620  0.67040215    -0.26100
C3984       C  0.58699882  0.72303015  0.66157308    -0.14100
C3985       C  0.60423605  0.74701622  0.65303997     0.36500
C3986       C  0.63506616  0.74489580  0.65468651    -0.25500
C3987       C  0.64896990  0.71940514  0.66485913    -0.14800
C3988       C  0.63199393  0.69475636  0.67217116     0.37600
N3989       N  0.64588583  0.66808985  0.68179642    -0.89000
H3990       H  0.58745729  0.67834907  0.67693453     0.18700
H3991       H  0.64831738  0.76379576  0.64895772     0.18700
N3992       N  0.59093367  0.77431412  0.64382476    -0.88000
H3993       H  0.65780942  0.67355718  0.69740423     0.36100
H3994       H  0.66122069  0.66022150  0.66904443     0.41100
H3995       H  0.57713553  0.78358579  0.65709987     0.40800
H3996       H  0.57782753  0.76928336  0.62873481     0.35700
C3997       C  0.86273839  0.47629037  0.65476805    -0.26100
C3998       C  0.85953237  0.95597761  0.66536648    -0.14100
C3999       C  0.87572417  0.93191175  0.67599370     0.36500
C4000       C  0.90697694  0.93234376  0.67599748    -0.25500
C4001       C  0.92173394  0.95657320  0.66545658    -0.14800
C4002       C  0.89364164  0.47812097  0.65433760     0.37600
N4003       N  0.90725800  0.50283029  0.64217409    -0.93800
H4004       H  0.84938445  0.49374332  0.64590652     0.18700
H4005       H  0.91974301  0.91459733  0.68496642     0.18700
N4006       N  0.86076890  0.90730650  0.68702037    -0.88000
H4007       H  0.89900211  0.52273847  0.64966370     0.36100
H4008       H  0.90073366  0.50235103  0.62399299     0.41100
H4009       H  0.84634526  0.89843127  0.67407711     0.40800
H4010       H  0.84781281  0.91533812  0.70128789     0.35700
C4011       C  0.60922262  0.56594633  0.67526707    -0.26100
C4012       C  0.60093078  0.03872005  0.66791928    -0.14100
C4013       C  0.61459481  0.01227231  0.65906749     0.36500
C4014       C  0.64551924  0.01100058  0.65689683    -0.25500
C4015       C  0.66270025  0.03522972  0.66409250    -0.14800
C4016       C  0.64052918  0.56661590  0.67461176     0.37600
N4017       N  0.65624660  0.59062652  0.68565811    -0.89000
H4018       H  0.59681628  0.58358269  0.68436651     0.18700
H4019       H  0.65647468  0.99048409  0.65093773     0.18700
N4020       N  0.59695911  0.98665773  0.65292823    -0.88000
H4021       H  0.64993745  0.59172826  0.70377967     0.36100
H4022       H  0.64898359  0.61038258  0.67712670     0.41100
H4023       H  0.58735260  0.97865744  0.66882856     0.40800
H4024       H  0.61053401  0.96925750  0.64634203     0.35700
C4025       C  0.75633056  0.73132262  0.79483688    -0.26100
C4026       C  0.74841516  0.75627102  0.80886057    -0.14100
C4027       C  0.73885400  0.78309638  0.79733740     0.36500
C4028       C  0.73791316  0.78464547  0.77193509    -0.25500
C4029       C  0.74581093  0.75970965  0.75786482    -0.14800
C4030       C  0.75511925  0.73262886  0.76950050     0.37600
N4031       N  0.76344430  0.70609723  0.75632232    -0.89000
H4032       H  0.76357055  0.71065478  0.80369387     0.18700
H4033       H  0.73061812  0.80524565  0.76301902     0.18700
N4034       N  0.73001108  0.80855666  0.81156664    -0.88000
H4035       H  0.78599403  0.70136592  0.76012095     0.36100
H4036       H  0.76186112  0.70940898  0.73768733     0.41100
H4037       H  0.71105529  0.80260098  0.82133979     0.40800
H4038       H  0.72356499  0.82657753  0.80039694     0.35700
C4039       C  0.78238176  0.86174148  0.88114149    -0.26100
C4040       C  0.80415618  0.84479976  0.89369139    -0.14100
C4041       C  0.82814118  0.85915370  0.90516577     0.36500
C4042       C  0.82871093  0.89063075  0.90543288    -0.25500
C4043       C  0.80550347  0.90740615  0.89437338    -0.14800
C4044       C  0.78269565  0.89286273  0.88158207     0.37600
N4045       N  0.75875869  0.90975461  0.87031122    -0.89000
H4046       H  0.76381541  0.85073625  0.87235724     0.18700
H4047       H  0.84623667  0.90192133  0.91526724     0.18700
N4048       N  0.85096900  0.84185400  0.91738630    -0.88000
H4049       H  0.73859792  0.90304191  0.87794970     0.36100
H4050       H  0.75828738  0.90438087  0.85195904     0.41100
H4051       H  0.85128151  0.84828255  0.93551481     0.40800
H4052       H  0.87155836  0.84737764  0.90986287     0.35700
C4053       C  0.72994849  0.61008368  0.88395125    -0.26100
C4054       C  0.70625082  0.59554782  0.89520560    -0.14100
C4055       C  0.68207775  0.61245204  0.90474447     0.36500
C4056       C  0.68332015  0.64387049  0.90406890    -0.25500
C4057       C  0.70808619  0.65818447  0.89404110    -0.14800
C4058       C  0.73126698  0.64105422  0.88341993     0.37600
N4059       N  0.75734731  0.65446210  0.87331270    -0.89000
H4060       H  0.74858991  0.59712750  0.87677152     0.18700
H4061       H  0.66567307  0.65712121  0.91234794     0.18700
N4062       N  0.65687158  0.59861630  0.91598017    -0.88000
H4063       H  0.76751753  0.66771126  0.88644230     0.36100
H4064       H  0.75086964  0.66802766  0.85867737     0.41100
H4065       H  0.65853135  0.57525668  0.91510846     0.40800
H4066       H  0.63781258  0.60483029  0.90595302     0.35700
C4067       C  0.75312043  0.97483427  0.79766331    -0.26100
C4068       C  0.75134631  0.50191906  0.80968513    -0.14100
C4069       C  0.75765189  0.52751782  0.79554654     0.36500
C4070       C  0.75694499  0.52540797  0.77021745    -0.25500
C4071       C  0.75059846  0.49820199  0.75887773    -0.14800
C4072       C  0.75172499  0.97208493  0.77242820     0.37600
N4073       N  0.74097570  0.94447304  0.76257422    -0.89000
H4074       H  0.74588240  0.95636742  0.80891298     0.18700
H4075       H  0.76180003  0.54489750  0.75920931     0.18700
N4076       N  0.76602092  0.55510010  0.80688862    -0.88000
H4077       H  0.71858565  0.94249686  0.76760067     0.36100
H4078       H  0.74130224  0.94456725  0.74373388     0.41100
H4079       H  0.74724229  0.56388203  0.81565127     0.40800
H4080       H  0.77176413  0.57105038  0.79387363     0.35700
C4081       C  0.00054790  0.79501783  0.79007430    -0.26100
C4082       C  0.00731605  0.76854531  0.80307751    -0.14100
C4083       C  0.49353783  0.73020744  0.79249697     0.36500
C4084       C  0.49460398  0.73161622  0.76713789    -0.25500
C4085       C  0.00400964  0.76823682  0.75165760    -0.14800
C4086       C  0.99931060  0.79527735  0.76466290     0.37600
N4087       N  0.99450223  0.82354083  0.75262373    -0.89000
H4088       H  0.99632596  0.81568589  0.79976633     0.18700
H4089       H  0.50037761  0.71167577  0.75697474     0.18700
N4090       N  0.50081093  0.70266935  0.80504621    -0.88000
H4091       H  0.97438506  0.82320279  0.74295761     0.36100
H4092       H  0.01201044  0.82684200  0.74053730     0.41100
H4093       H  0.52002420  0.70624780  0.81543491     0.40800
H4094       H  0.50622454  0.68570711  0.79278399     0.35700
C4095       C  0.56053237  0.86100312  0.90240425    -0.26100
C4096       C  0.05983822  0.85947942  0.88937138    -0.14100
C4097       C  0.03702228  0.87692502  0.87822218     0.36500
C4098       C  0.03829662  0.90804774  0.87890074    -0.25500
C4099       C  0.06180168  0.92227253  0.89080070    -0.14800
C4100       C  0.56502869  0.89203976  0.90356401     0.37600
N4101       N  0.59123372  0.90266500  0.91578153    -0.89000
H4102       H  0.57661362  0.84569340  0.91084148     0.18700
H4103       H  0.01984462  0.92123305  0.87131273     0.18700
N4104       N  0.01158992  0.86300901  0.86737845    -0.88000
H4105       H  0.58966242  0.89647120  0.93397072     0.36100
H4106       H  0.59216657  0.92605081  0.91516922     0.41100
H4107       H  0.01028843  0.86984633  0.84929064     0.40800
H4108       H  0.99233184  0.87077981  0.87611443     0.35700
C4109       C  0.93925674  0.65799998  0.89848806    -0.26100
C4110       C  0.96502839  0.67145358  0.88922307    -0.14100
C4111       C  0.46731523  0.64162542  0.88165981     0.36500
C4112       C  0.46681973  0.61056328  0.88314077    -0.25500
C4113       C  0.96282324  0.60890827  0.89400390    -0.14800
C4114       C  0.93787754  0.62666577  0.90076861     0.37600
N4115       N  0.91137283  0.61348487  0.91019924    -0.89000
H4116       H  0.92091105  0.67190327  0.90493257     0.18700
H4117       H  0.48628562  0.59774602  0.87732294     0.18700
N4118       N  0.49343897  0.65529413  0.87189191    -0.88000
H4119       H  0.91708767  0.60119370  0.92573607     0.36100
H4120       H  0.90321040  0.59856617  0.89732435     0.41100
H4121       H  0.50254414  0.66954273  0.88483460     0.40800
H4122       H  0.48717456  0.66794883  0.85667541     0.35700
C4123       C  0.01102608  0.98562963  0.76978258    -0.26100
C4124       C  0.01608829  0.01128942  0.75562423    -0.14100
C4125       C  0.49746506  0.52908400  0.77136119     0.36500
C4126       C  0.49626034  0.52853531  0.79669385    -0.25500
C4127       C  0.01332236  0.01497633  0.80667202    -0.14800
C4128       C  0.00851450  0.98734774  0.79490116     0.37600
N4129       N  0.99946941  0.96106013  0.80780842    -0.89000
H4130       H  0.00801282  0.96414721  0.76111728     0.18700
H4131       H  0.49890890  0.54928064  0.80652222     0.18700
N4132       N  0.49981967  0.55762088  0.75951067    -0.88000
H4133       H  0.01622099  0.95427915  0.81994895     0.36100
H4134       H  0.98014515  0.96642082  0.81752350     0.41100
H4135       H  0.48198834  0.56014064  0.74729290     0.40800
H4136       H  0.51985505  0.55832745  0.75000972     0.35700
C4137       C  0.78055018  0.85785238  0.03297191    -0.26100
C4138       C  0.75325839  0.84240541  0.03292546    -0.14100
C4139       C  0.72648591  0.86016347  0.03256424     0.36500
C4140       C  0.72781663  0.89209138  0.03282517    -0.25500
C4141       C  0.75520248  0.90744242  0.03289117    -0.14800
C4142       C  0.78178688  0.88961017  0.03282442     0.37600
N4143       N  0.81042304  0.90351655  0.03251663    -0.89000
H4144       H  0.80144599  0.84517282  0.03303487     0.18700
H4145       H  0.70712286  0.90509556  0.03272801     0.18700
N4146       N  0.69787852  0.84593640  0.03190780    -0.88000
H4147       H  0.82178670  0.89621106  0.01713779     0.36100
H4148       H  0.82252905  0.89608997  0.04771441     0.41100
H4149       H  0.69584572  0.83557995  0.01509852     0.40800
H4150       H  0.68052854  0.86192745  0.03270693     0.35700
C4151       C  0.73022261  0.64161420  0.03394466    -0.26100
C4152       C  0.75741380  0.65720787  0.03288598    -0.14100
C4153       C  0.78420509  0.63955937  0.03211602     0.36500
C4154       C  0.78304918  0.60761882  0.03249010    -0.25500
C4155       C  0.75581241  0.59205761  0.03347932    -0.14800
C4156       C  0.72905849  0.60974165  0.03441873     0.37600
N4157       N  0.70054293  0.59545174  0.03600820    -0.89000
H4158       H  0.70944861  0.65442959  0.03468561     0.18700
H4159       H  0.80379481  0.59474876  0.03179717     0.18700
N4160       N  0.81270040  0.65393902  0.03097349    -0.88000
H4161       H  0.68309196  0.61137258  0.03557002     0.36100
H4162       H  0.69960466  0.58495610  0.05293251     0.41100
H4163       H  0.81394519  0.66460023  0.01414002     0.40800
H4164       H  0.83016502  0.63803080  0.03153811     0.35700
C4165       C  0.46460803  0.89682632  0.03066995    -0.26100
C4166       C  0.49207344  0.91169017  0.03371863    -0.14100
C4167       C  0.51810131  0.89327273  0.03631069     0.36500
C4168       C  0.51629031  0.86146957  0.03560284    -0.25500
C4169       C  0.48889632  0.84657608  0.03232160    -0.14800
C4170       C  0.46279818  0.86497885  0.02997865     0.37600
N4171       N  0.95945457  0.86014769  0.03936672    -0.89000
H4172       H  0.96883770  0.91863874  0.03822262     0.18700
H4173       H  0.53677378  0.84832687  0.03764397     0.18700
N4174       N  0.54671792  0.90664140  0.03966793    -0.88000
H4175       H  0.94331362  0.86814224  0.02703301     0.36100
H4176       H  0.95305214  0.86698178  0.05662950     0.41100
H4177       H  0.56066321  0.89949662  0.02568604     0.40800
H4178       H  0.55582801  0.89863911  0.05597779     0.35700
C4179       C  0.51735122  0.61245513  0.03025903    -0.26100
C4180       C  0.49071469  0.59608424  0.03193760    -0.14100
C4181       C  0.46343911  0.61294714  0.03179381     0.36500
C4182       C  0.46345219  0.64486448  0.03120259    -0.25500
C4183       C  0.49017070  0.66124617  0.03014597    -0.14800
C4184       C  0.51734489  0.64429858  0.02908145     0.37600
N4185       N  0.54529349  0.65919287  0.02659585    -0.89000
H4186       H  0.53862285  0.60046707  0.02972564     0.18700
H4187       H  0.96343004  0.66793904  0.02811139     0.18700
N4188       N  0.95455006  0.60935656  0.02985697    -0.88000
H4189       H  0.55546136  0.65154742  0.01078324     0.36100
H4190       H  0.55902386  0.65292293  0.04121258     0.41100
H4191       H  0.94437423  0.61582266  0.01351634     0.40800
H4192       H  0.94129282  0.61747861  0.04393090     0.35700
C4193       C  0.87451581  0.73490313  0.53092550    -0.26100
C4194       C  0.88991387  0.76164633  0.52616806    -0.14100
C4195       C  0.87229588  0.78786247  0.52162721     0.36500
C4196       C  0.84054183  0.78696874  0.52245264    -0.25500
C4197       C  0.82517483  0.76030372  0.52767923    -0.14800
C4198       C  0.84283411  0.73401249  0.53186522     0.37600
N4199       N  0.82884593  0.70623681  0.53764582    -0.89000
H4200       H  0.88717777  0.71436617  0.53441038     0.18700
H4201       H  0.82783520  0.80745158  0.51886823     0.18700
N4202       N  0.88642272  0.81553549  0.51578445    -0.88000
H4203       H  0.83690114  0.69897443  0.55452735     0.36100
H4204       H  0.83540107  0.69038142  0.52482332     0.41100
H4205       H  0.87972875  0.83152281  0.52847029     0.40800
H4206       H  0.87858122  0.82265393  0.49881083     0.35700
C4207       C  0.59214908  0.73647055  0.54006271    -0.26100
C4208       C  0.57545206  0.76152499  0.53134286    -0.14100
C4209       C  0.59199609  0.78668306  0.52340997     0.36500
C4210       C  0.62393854  0.78612218  0.52442113    -0.25500
C4211       C  0.64061560  0.76093991  0.53295973    -0.14800
C4212       C  0.62404562  0.73594312  0.54115305     0.37600
N4213       N  0.63955127  0.71001702  0.55090675    -0.89000
H4214       H  0.58017193  0.71709113  0.54647257     0.18700
H4215       H  0.63594088  0.80548210  0.51800436     0.18700
N4216       N  0.57644281  0.81272684  0.51392712    -0.88000
H4217       H  0.62441693  0.69342848  0.55574472     0.36100
H4218       H  0.65015737  0.71654853  0.56688515     0.41100
H4219       H  0.56580973  0.80642986  0.49789550     0.40800
H4220       H  0.59156164  0.82940133  0.50925099     0.35700
C4221       C  0.90257376  0.96879121  0.52344716    -0.26100
C4222       C  0.91859117  0.99413987  0.53106512    -0.14100
C4223       C  0.89444132  0.52488443  0.53688966     0.36500
C4224       C  0.86269833  0.52263907  0.53695153    -0.25500
C4225       C  0.85355914  0.99353564  0.53079293    -0.14800
C4226       C  0.87071514  0.96841082  0.52295260     0.37600
N4227       N  0.85594756  0.94265386  0.51361242    -0.89000
H4228       H  0.91486635  0.94918250  0.51725816     0.18700
H4229       H  0.84929379  0.54295708  0.53874985     0.18700
N4230       N  0.90781953  0.55382986  0.53912281    -0.88000
H4231       H  0.86284407  0.92395215  0.52383634     0.36100
H4232       H  0.86304874  0.93942740  0.49584211     0.41100
H4233       H  0.91898552  0.55424404  0.55577453     0.40800
H4234       H  0.89137403  0.57078077  0.53968453     0.35700
C4235       C  0.61383850  0.52354935  0.53629305    -0.26100
C4236       C  0.60323335  0.99524414  0.53358140    -0.14100
C4237       C  0.62063709  0.96872892  0.52988293     0.36500
C4238       C  0.65245086  0.96957120  0.52918884    -0.25500
C4239       C  0.66839399  0.99643575  0.53198471    -0.14800
C4240       C  0.64571475  0.52382267  0.53639333     0.37600
N4241       N  0.66050701  0.55166028  0.54016674    -0.89000
H4242       H  0.60175214  0.54456250  0.53876747     0.18700
H4243       H  0.66476418  0.94876757  0.52636036     0.18700
N4244       N  0.60621107  0.94059370  0.52665662    -0.88000
H4245       H  0.65369752  0.56019476  0.55683489     0.36100
H4246       H  0.65336912  0.56673548  0.52668042     0.41100
H4247       H  0.61410746  0.92577882  0.54006507     0.40800
H4248       H  0.61253659  0.93201062  0.50988652     0.35700
C4249       C  0.86431360  0.83067687  0.39444873    -0.26100
C4250       C  0.88134027  0.80566603  0.38703485    -0.14100
C4251       C  0.86700452  0.77967713  0.37903993     0.36500
C4252       C  0.83599301  0.77847608  0.37946588    -0.25500
C4253       C  0.81898471  0.80260594  0.38824501    -0.14800
C4254       C  0.83295611  0.82925205  0.39510222     0.37600
N4255       N  0.81543906  0.85420868  0.40348276    -0.89000
H4256       H  0.87531296  0.85053639  0.40084329     0.18700
H4257       H  0.82516621  0.75788657  0.37423986     0.18700
N4258       N  0.88410932  0.75378172  0.37185621    -0.88000
H4259       H  0.81968542  0.87260868  0.39229365     0.36100
H4260       H  0.82269882  0.85935599  0.42094719     0.41100
H4261       H  0.87781810  0.74837107  0.35421195     0.40800
H4262       H  0.87850932  0.73587183  0.38316324     0.35700
C4263       C  0.58865387  0.68058966  0.40053462    -0.26100
C4264       C  0.57432506  0.70672532  0.39172437    -0.14100
C4265       C  0.59125707  0.73070018  0.38302879     0.36500
C4266       C  0.62229277  0.72888873  0.38422071    -0.25500
C4267       C  0.63678488  0.70357908  0.39417004    -0.14800
C4268       C  0.62010390  0.67884164  0.40190253     0.37600
N4269       N  0.63506330  0.65252866  0.41137150    -0.89000
H4270       H  0.57531609  0.66232251  0.40728850     0.18700
H4271       H  0.63522143  0.74791419  0.37828720     0.18700
N4272       N  0.57681348  0.75757412  0.37413789    -0.88000
H4273       H  0.61930522  0.63663475  0.41637927     0.36100
H4274       H  0.64622903  0.65851298  0.42721372     0.41100
H4275       H  0.58397569  0.76127810  0.35644603     0.40800
H4276       H  0.58389583  0.77549312  0.38471856     0.35700
C4277       C  0.90009287  0.47252756  0.38131415    -0.26100
C4278       C  0.91588162  0.45002867  0.39400895    -0.14100
C4279       C  0.90228364  0.92686773  0.39751774     0.36500
C4280       C  0.87086743  0.92662732  0.39799098    -0.25500
C4281       C  0.85425505  0.95190599  0.39008454    -0.14800
C4282       C  0.86908521  0.47376119  0.38159870     0.37600
N4283       N  0.85365670  0.49912699  0.37100146    -0.89000
H4284       H  0.91197508  0.49076117  0.37281824     0.18700
H4285       H  0.85954224  0.90754105  0.40562769     0.18700
N4286       N  0.91953843  0.90167762  0.40627888    -0.88000
H4287       H  0.85925545  0.50022731  0.35273023     0.36100
H4288       H  0.86136605  0.51854103  0.37936549     0.41100
H4289       H  0.91453927  0.88322954  0.39554373     0.40800
H4290       H  0.91292195  0.89701476  0.42396977     0.35700
C4291       C  0.65343735  0.01949200  0.38506275    -0.26100
C4292       C  0.66687412  0.04580228  0.39302642    -0.14100
C4293       C  0.64690450  0.56868284  0.40762410     0.36500
C4294       C  0.61558488  0.56915815  0.40655412    -0.25500
C4295       C  0.60029040  0.54635791  0.39458470    -0.14800
C4296       C  0.62268179  0.01625569  0.38646164     0.37600
N4297       N  0.60948547  0.98832485  0.37996243    -0.89000
H4298       H  0.66714991  0.00066778  0.37912204     0.18700
H4299       H  0.60305481  0.58613848  0.41628294     0.18700
N4300       N  0.66179530  0.59112894  0.42156660    -0.88000
H4301       H  0.61922141  0.97139494  0.39075415     0.36100
H4302       H  0.61484526  0.98386031  0.36197859     0.41100
H4303       H  0.68503902  0.58878685  0.42060230     0.40800
H4304       H  0.65594802  0.58802376  0.43965055     0.35700
C4305       C  0.71854351  0.76290593  0.26780862    -0.26100
C4306       C  0.74085295  0.74512030  0.25705791    -0.14100
C4307       C  0.75793607  0.72467814  0.27144629     0.36500
C4308       C  0.75263904  0.72312740  0.29633624    -0.25500
C4309       C  0.73060114  0.74122960  0.30711983    -0.14800
C4310       C  0.71301670  0.76108587  0.29260942     0.37600
N4311       N  0.68977606  0.77996722  0.30243637    -0.89000
H4312       H  0.70506443  0.77812534  0.25671035     0.18700
H4313       H  0.76644318  0.70828141  0.30750407     0.18700
N4314       N  0.78105504  0.70563872  0.26160735    -0.88000
H4315       H  0.69657377  0.80220920  0.30071199     0.36100
H4316       H  0.68661008  0.77585227  0.32080750     0.41100
H4317       H  0.78360815  0.70907093  0.24307661     0.40800
H4318       H  0.77445534  0.68342341  0.26389330     0.35700
C4319       C  0.82211313  0.85505020  0.16718618    -0.26100
C4320       C  0.79531836  0.84207119  0.17480974    -0.14100
C4321       C  0.77138979  0.86052895  0.18275040     0.36500
C4322       C  0.77432961  0.89137453  0.18231589    -0.25500
C4323       C  0.80036087  0.90448497  0.17361772    -0.14800
C4324       C  0.82475477  0.88631233  0.16640957     0.37600
N4325       N  0.85186833  0.89908749  0.15781004    -0.89000
H4326       H  0.84035654  0.84090070  0.16089102     0.18700
H4327       H  0.75547267  0.90539933  0.18766681     0.18700
N4328       N  0.74319569  0.84864948  0.19001274    -0.88000
H4329       H  0.86038947  0.91290603  0.17130749     0.36100
H4330       H  0.84693342  0.91240446  0.14264931     0.41100
H4331       H  0.74646615  0.83511635  0.20530834     0.40800
H4332       H  0.73467749  0.83564260  0.17599928     0.35700
C4333       C  0.72381999  0.60725217  0.18278134    -0.26100
C4334       C  0.70127560  0.59173774  0.17079096    -0.14100
C4335       C  0.67741321  0.60754271  0.15935623     0.36500
C4336       C  0.67783567  0.63909181  0.15886905    -0.25500
C4337       C  0.70185152  0.65428659  0.16933070    -0.14800
C4338       C  0.72449563  0.63828630  0.18193783     0.37600
N4339       N  0.74913827  0.65354629  0.19278872    -0.89000
H4340       H  0.74219962  0.59506108  0.19148344     0.18700
H4341       H  0.66037485  0.65175360  0.14945474     0.18700
N4342       N  0.65345302  0.59162204  0.14801952    -0.88000
H4343       H  0.76894056  0.64550735  0.18501673     0.36100
H4344       H  0.74973886  0.64812990  0.21119354     0.41100
H4345       H  0.66224928  0.57954749  0.13355048     0.40800
H4346       H  0.63773173  0.60677991  0.14059903     0.35700
C4347       C  0.73647983  0.98062797  0.26928554    -0.26100
C4348       C  0.75401633  0.00093558  0.25643592    -0.14100
C4349       C  0.77164086  0.51708008  0.27065524     0.36500
C4350       C  0.77302805  0.51585520  0.29596424    -0.25500
C4351       C  0.75609003  0.99954125  0.30723210    -0.14800
C4352       C  0.73698641  0.97986853  0.29460764     0.37600
N4353       N  0.71808145  0.95885113  0.30674006    -0.89000
H4354       H  0.72237513  0.96522559  0.25953144     0.18700
H4355       H  0.78934406  0.52927998  0.30538233     0.18700
N4356       N  0.79176693  0.53670741  0.25831725    -0.88000
H4357       H  0.69588703  0.96472533  0.30249315     0.36100
H4358       H  0.72009474  0.96025198  0.32547126     0.41100
H4359       H  0.78809547  0.53698958  0.23967965     0.40800
H4360       H  0.81351578  0.52840036  0.26123093     0.35700
C4361       C  0.96944413  0.74853218  0.26319477    -0.26100
C4362       C  0.99024909  0.76667496  0.25152313    -0.14100
C4363       C  0.49324486  0.77010756  0.26923928     0.36500
C4364       C  0.49255974  0.76858917  0.29445494    -0.25500
C4365       C  0.98313273  0.77001404  0.30181133    -0.14800
C4366       C  0.96565622  0.75022109  0.28825241     0.37600
N4367       N  0.94438291  0.73155954  0.30002740    -0.89000
H4368       H  0.95608904  0.73312097  0.25278416     0.18700
H4369       H  0.50582715  0.78403389  0.30490991     0.18700
N4370       N  0.51111237  0.79253895  0.25800393    -0.88000
H4371       H  0.92328911  0.73631803  0.29249385     0.36100
H4372       H  0.94991000  0.70920297  0.29627303     0.41100
H4373       H  0.49711807  0.80605125  0.24711541     0.40800
H4374       H  0.52681099  0.78186547  0.24695597     0.35700
C4375       C  0.93612376  0.90942080  0.15439839    -0.26100
C4376       C  0.96034265  0.92140676  0.16721188    -0.14100
C4377       C  0.46937698  0.88916728  0.18238690     0.36500
C4378       C  0.46516073  0.85843816  0.18124123    -0.25500
C4379       C  0.95460205  0.85935860  0.16405071    -0.14800
C4380       C  0.93338701  0.87816949  0.15234392     0.37600
N4381       N  0.91073327  0.86545553  0.13721191    -0.89000
H4382       H  0.92089477  0.92435789  0.14461262     0.18700
H4383       H  0.48261271  0.84341703  0.18814785     0.18700
N4384       N  0.49686600  0.90030039  0.19205210    -0.88000
H4385       H  0.89779338  0.88240822  0.12891114     0.36100
H4386       H  0.89652357  0.85322568  0.14832331     0.41100
H4387       H  0.51454678  0.89113363  0.18209815     0.40800
H4388       H  0.49907636  0.89271353  0.20989787     0.35700
C4389       C  0.02053711  0.65121687  0.18046696    -0.26100
C4390       C  0.04483630  0.66713646  0.17154915    -0.14100
C4391       C  0.56505146  0.64536462  0.16680442     0.36500
C4392       C  0.56741181  0.61390087  0.16670304    -0.25500
C4393       C  0.04806453  0.60452286  0.17556635    -0.14800
C4394       C  0.02184037  0.62021482  0.18253558     0.37600
N4395       N  0.99566137  0.60506294  0.19063466    -0.89000
H4396       H  0.99994963  0.66300891  0.18507078     0.18700
H4397       H  0.58833880  0.60307450  0.16177616     0.18700
N4398       N  0.59111752  0.66257515  0.16148402    -0.88000
H4399       H  0.00118215  0.59268333  0.20617585     0.36100
H4400       H  0.98868438  0.59033315  0.17718281     0.41100
H4401       H  0.58660595  0.68556745  0.16270693     0.40800
H4402       H  0.59702222  0.65828225  0.14358793     0.35700
C4403       C  0.52531426  0.48180040  0.29686347    -0.26100
C4404       C  0.00681923  0.50413633  0.31020707    -0.14100
C4405       C  0.98404975  0.51754574  0.29598433     0.36500
C4406       C  0.98624633  0.51725480  0.27071746    -0.25500
C4407       C  0.01049293  0.50297074  0.25925835    -0.14800
C4408       C  0.52624873  0.98144902  0.27151221     0.37600
N4409       N  0.54700028  0.96161957  0.25981054    -0.89000
H4410       H  0.54132423  0.96776913  0.30698418     0.18700
H4411       H  0.96875732  0.52801996  0.25991383     0.18700
N4412       N  0.95868218  0.53149416  0.30719981    -0.88000
H4413       H  0.56079998  0.97442050  0.24876886     0.36100
H4414       H  0.53490469  0.94707987  0.24884542     0.41100
H4415       H  0.95754413  0.55390706  0.30152697     0.40800
H4416       H  0.93945353  0.52089041  0.30093487     0.35700
loop_ 
_geom_bond_atom_site_label_1 
_geom_bond_atom_site_label_2 
_geom_bond_distance 
_geom_bond_site_symmetry_2 
_ccdc_geom_bond_type 
N1            C6   1.353       .  A
N1            C5   1.357       .  A
N1           H33   1.041       .  S
N2            C9   1.352       .  A
N2           C10   1.352       .  A
N3            C8   1.353       .  A
N3            C7   1.348       .  A
N3           H34   1.039       .  S
N4           C11   1.344       .  A
N4           C12   1.349       .  A
C5           C13   1.384       .  A
C5         C1125   1.412       .  A
C6           C22   1.419       .  A
C6           C14   1.391       .  A
C7           C15   1.386       .  A
C7           C24   1.410       .  A
C8           C16   1.388       .  A
C8         C1127   1.415       .  A
C9           C21   1.411   1_655  A
C9           C17   1.385       .  A
C10          C18   1.388       .  A
C10        C2232   1.413       .  A
C11          C19   1.388       .  A
C11        C2230   1.407       .  A
C12          C20   1.386       .  A
C12          C23   1.411   1_545  A
C13          C14   1.376       .  A
C13          H25   1.083       .  S
C14          H26   1.082       .  S
C15          C16   1.377       .  A
C15          H27   1.082       .  S
C16          H28   1.082       .  S
C17          C18   1.373       .  A
C17          H29   1.082       .  S
C18          H30   1.082       .  S
C19          C20   1.374       .  A
C19          H31   1.083       .  S
C20          H32   1.082       .  S
C21        C1109   1.410       .  A
C21        C1444   1.479       .  S
C22        C2219   1.405       .  A
C22        C3289   1.473       .  S
C23        C1112   1.418       .  A
C23        C1095   1.491   1_565  S
C24        C2218   1.418       .  A
C24        C1064   1.485       .  S
N35          C40   1.352       .  A
N35          C39   1.357       .  A
N35          H67   1.041       .  S
N36          C43   1.351       .  A
N36          C44   1.350       .  A
N37          C42   1.354       .  A
N37          C41   1.346       .  A
N37          H68   1.039       .  S
N38          C45   1.344       .  A
N38          C46   1.350       .  A
C39          C47   1.383       .  A
C39          C55   1.411       .  A
C40          C48   1.392       .  A
C40        C2264   1.421       .  A
C41          C49   1.386       .  A
C41          C58   1.407       .  A
C42          C57   1.415       .  A
C42          C50   1.387       .  A
C43          C55   1.404   1_655  A
C43          C51   1.383       .  A
C44          C52   1.389       .  A
C44        C2266   1.411       .  A
C45          C53   1.388       .  A
C45          C56   1.408       .  A
C46          C54   1.385       .  A
C46          C57   1.411       .  A
C47          C48   1.375       .  A
C47          H59   1.083       .  S
C48          H60   1.082       .  S
C49          C50   1.379       .  A
C49          H61   1.083       .  S
C50          H62   1.082       .  S
C51          C52   1.368       .  A
C51          H63   1.082       .  S
C52          H64   1.081       .  S
C53          C54   1.375       .  A
C53          H65   1.083       .  S
C54          H66   1.083       .  S
C55         C355   1.480       .  S
C56        C2248   1.420       .  A
C56        C1078   1.475       .  S
C57        C1050   1.489       .  S
C58        C2252   1.418       .  A
C58        C1067   1.482       .  S
N69          C74   1.345       .  A
N69          C73   1.356       .  A
N69         H101   1.039       .  S
N70          C77   1.353   1_545  A
N70          C78   1.346       .  A
N71          C76   1.356       .  A
N71          C75   1.352       .  A
N71         H102   1.041   1_545  S
N72          C79   1.349       .  A
N72          C80   1.352       .  A
C73          C81   1.393       .  A
C73          C89   1.426       .  A
C74          C90   1.402       .  A
C74          C82   1.382       .  A
C75          C83   1.391       .  A
C75          C92   1.418       .  A
C76          C84   1.383       .  A
C76        C1195   1.410   1_545  A
C77          C85   1.391   1_565  A
C77        C1193   1.422       .  A
C78          C92   1.409       .  A
C78          C86   1.384       .  A
C79          C87   1.388       .  A
C79          C90   1.411       .  A
C80          C88   1.383       .  A
C80          C91   1.406       .  A
C81          C82   1.376       .  A
C81          H93   1.079       .  S
C82          H94   1.083       .  S
C83          C84   1.374       .  A
C83          H95   1.081       .  S
C84          H96   1.082       .  S
C85          C86   1.373       .  A
C85          H97   1.080       .  S
C86          H98   1.083       .  S
C87          C88   1.374       .  A
C87          H99   1.082       .  S
C88         H100   1.082       .  S
C89        C1181   1.419       .  A
C89        C1474   1.493       .  S
C90        C1011   1.473       .  S
C91        C1180   1.408       .  A
C91        C1036   1.488       .  S
C92        C1022   1.478       .  S
N103        C108   1.347       .  A
N103        C107   1.355       .  A
N103        H135   1.038       .  S
N104        C111   1.351       .  A
N104        C112   1.346       .  A
N105        C110   1.357       .  A
N105        C109   1.353       .  A
N105        H136   1.040       .  S
N106        C113   1.350       .  A
N106        C114   1.352       .  A
C107        C115   1.392       .  A
C107        C123   1.421       .  A
C108        C124   1.406       .  A
C108        C116   1.383       .  A
C109        C117   1.390       .  A
C109        C126   1.420       .  A
C110        C125   1.414       .  A
C110        C118   1.384       .  A
C111        C123   1.417       .  A
C111        C119   1.388       .  A
C112        C126   1.410       .  A
C112        C120   1.387       .  A
C113        C121   1.388       .  A
C113        C124   1.411       .  A
C114        C122   1.385       .  A
C114        C125   1.409       .  A
C115        C116   1.372       .  A
C115        H127   1.080       .  S
C116        H128   1.083       .  S
C117        C118   1.377       .  A
C117        H129   1.082       .  S
C118        H130   1.082       .  S
C119        C120   1.373       .  A
C119        H131   1.081       .  S
C120        H132   1.083       .  S
C121        C122   1.371       .  A
C121        H133   1.082       .  S
C122        H134   1.082       .  S
C123        C383   1.485       .  S
C124       C1008   1.472       .  S
C125        C994   1.492       .  S
C126       C1025   1.480       .  S
N137        C142   1.353       .  A
N137        C141   1.354       .  A
N137        H169   1.039       .  S
N138        C145   1.354       .  A
N138        C146   1.350       .  A
N139        C144   1.355       .  A
N139        C143   1.345       .  A
N139        H170   1.040       .  S
N140        C147   1.344       .  A
N140        C148   1.349       .  A
C141        C149   1.385       .  A
C141       C2365   1.410   1_545  A
C142        C158   1.417       .  A
C142        C150   1.390       .  A
C143        C151   1.388       .  A
C143        C160   1.409       .  A
C144        C159   1.413   1_565  A
C144        C152   1.385       .  A
C145        C157   1.408       .  A
C145        C153   1.383       .  A
C146        C160   1.416       .  A
C146        C154   1.390       .  A
C147        C155   1.387       .  A
C147        C158   1.406       .  A
C148        C156   1.386       .  A
C148       C2367   1.412       .  A
C149        C150   1.373       .  A
C149        H161   1.083       .  S
C150        H162   1.083       .  S
C151        C152   1.376       .  A
C151        H163   1.083       .  S
C152        H164   1.082       .  S
C153        C154   1.373       .  A
C153        H165   1.083       .  S
C154        H166   1.082       .  S
C155        C156   1.374       .  A
C155        H167   1.083       .  S
C156        H168   1.082       .  S
C157       C2349   1.411   1_565  A
C157       C1389   1.485       .  S
C158        C983   1.472       .  S
C159       C2356   1.409       .  A
C159       C1092   1.491       .  S
C160        C966   1.473       .  S
N171        C176   1.352       .  A
N171        C175   1.355       .  A
N171        H203   1.040   1_455  S
N172        C179   1.353       .  A
N172        C180   1.351       .  A
N173        C178   1.355       .  A
N173        C177   1.347       .  A
N173        H204   1.036       .  S
N174        C181   1.343       .  A
N174        C182   1.351       .  A
C175        C183   1.384       .  A
C175       C2399   1.409   1_455  A
C176        C192   1.417       .  A
C176        C184   1.391       .  A
C177        C185   1.385       .  A
C177        C194   1.407       .  A
C178        C193   1.416       .  A
C178        C186   1.388       .  A
C179        C191   1.409       .  A
C179        C187   1.385       .  A
C180        C194   1.414       .  A
C180        C188   1.388       .  A
C181        C189   1.388       .  A
C181        C192   1.408       .  A
C182        C190   1.385       .  A
C182       C2401   1.411   1_455  A
C183        C184   1.372       .  A
C183        H195   1.082       .  S
C184        H196   1.081       .  S
C185        C186   1.375       .  A
C185        H197   1.083       .  S
C186        H198   1.082       .  S
C187        C188   1.373       .  A
C187        H199   1.083       .  S
C188        H200   1.082       .  S
C189        C190   1.374       .  A
C189        H201   1.083       .  S
C190        H202   1.082       .  S
C191       C2383   1.408       .  A
C191        C300   1.476       .  S
C192        C952   1.475       .  S
C193       C2390   1.412       .  A
C193       C1053   1.489       .  S
C194        C938   1.475       .  S
N205        C210   1.353       .  A
N205        C209   1.355       .  A
N205        H237   1.042       .  S
N206        C213   1.352       .  A
N206        C214   1.351       .  A
N207        C212   1.352       .  A
N207        C211   1.345       .  A
N207        H238   1.040       .  S
N208        C215   1.343       .  A
N208        C216   1.351       .  A
C209        C217   1.384       .  A
C209        C225   1.410       .  A
C210        C226   1.419       .  A
C210        C218   1.391       .  A
C211        C219   1.387       .  A
C211        C228   1.405       .  A
C212        C227   1.412       .  A
C212        C220   1.386       .  A
C213        C225   1.408       .  A
C213        C221   1.384       .  A
C214        C228   1.416       .  A
C214        C222   1.390       .  A
C215        C223   1.389       .  A
C215        C226   1.408       .  A
C216        C224   1.385       .  A
C216        C227   1.412       .  A
C217        C218   1.374       .  A
C217        H229   1.082       .  S
C218        H230   1.081       .  S
C219        C220   1.379       .  A
C219        H231   1.083       .  S
C220        H232   1.082       .  S
C221        C222   1.375       .  A
C221        H233   1.083       .  S
C222        H234   1.081       .  S
C223        C224   1.376       .  A
C223        H235   1.083       .  S
C224        H236   1.082       .  S
C225        C314   1.481       .  S
C226        C980   1.477       .  S
C227       C1039   1.490       .  S
C228        C969   1.477       .  S
N239        C244   1.352       .  A
N239        C243   1.354       .  A
N239        H271   1.042       .  S
N240        C247   1.354       .  A
N240        C248   1.350       .  A
N241        C246   1.355       .  A
N241        C245   1.346       .  A
N241        H272   1.039       .  S
N242        C249   1.344       .  A
N242        C250   1.351       .  A
C243        C251   1.382       .  A
C243        C259   1.406       .  A
C244        C260   1.419       .  A
C244        C252   1.393       .  A
C245        C253   1.386       .  A
C245        C262   1.407       .  A
C246        C261   1.416       .  A
C246        C254   1.387       .  A
C247        C259   1.404       .  A
C247        C255   1.382       .  A
C248        C262   1.414       .  A
C248        C256   1.391       .  A
C249        C257   1.388       .  A
C249        C260   1.410       .  A
C250        C258   1.385       .  A
C250        C261   1.415       .  A
C251        C252   1.372       .  A
C251        H263   1.083       .  S
C252        H264   1.081       .  S
C253        C254   1.378       .  A
C253        H265   1.083       .  S
C254        H266   1.082       .  S
C255        C256   1.371       .  A
C255        H267   1.083       .  S
C256        H268   1.081       .  S
C257        C258   1.377       .  A
C257        H269   1.083       .  S
C258        H270   1.082       .  S
C259        C327   1.480       .  S
C260        C955   1.474       .  S
C261        C997   1.497       .  S
C262        C941   1.471       .  S
O273        V281   1.932       .  S
O273       C1387   1.273   1_545  A
O274       V2489   1.937       .  S
O274       C1388   1.274   1_545  A
O275        V281   1.903       .  S
O275       C1389   1.264   1_545  A
O276        V281   1.900       .  S
O276       C1390   1.264   1_545  A
O277        V282   1.906       .  S
O277        C286   1.265       .  A
O278        V282   1.903       .  S
O278        C285   1.265       .  A
O279       V2490   1.926       .  S
O279        C284   1.271       .  A
O280        V282   1.928       .  S
O280        C283   1.272       .  A
V281       O2482   1.937       .  S
V281       V1386   2.078   1_545  T
V282       O2487   1.933       .  S
V282       V1385   2.078       .  T
C283        C910   1.526       .  S
C283       O1377   1.272       .  A
C284        C924   1.533       .  S
C284       O1378   1.275       .  A
C285       C1261   1.479       .  S
C285       O1379   1.263       .  A
C286        C542   1.492       .  S
C286       O1380   1.263       .  A
O287        V295   1.927       .  S
O287        C297   1.272       .  A
O288       V2503   1.931   1_455  S
O288        C298   1.272       .  A
O289        V295   1.901       .  S
O289        C299   1.264       .  A
O290        V295   1.900       .  S
O290        C300   1.264       .  A
O291        V296   1.898       .  S
O291        C300   1.262       .  A
O292        V296   1.895       .  S
O292        C299   1.263       .  A
O293       V2504   1.934   1_455  S
O293        C298   1.273       .  A
O294        V296   1.942       .  S
O294        C297   1.275       .  A
V295       O2496   1.933       .  S
V295        V296   2.081       .  T
V296       O2501   1.938       .  S
C297        C882   1.532       .  S
C298        C896   1.532       .  S
C299        C576   1.486       .  S
O301        V309   1.925       .  S
O301       C1415   1.271   1_545  A
O302        V309   1.928       .  S
O302       C1416   1.271   1_545  A
O303        V309   1.899       .  S
O303       C1417   1.264   1_545  A
O304        V309   1.901       .  S
O304       C1418   1.265   1_545  A
O305        V310   1.899       .  S
O305        C314   1.263       .  A
O306        V310   1.902       .  S
O306        C313   1.264       .  A
O307        V310   1.936       .  S
O307        C312   1.274       .  A
O308        V310   1.930       .  S
O308        C311   1.272       .  A
V309       V1414   2.078   1_545  T
V310       V1413   2.079       .  T
C311        C913   1.527       .  S
C311       O1405   1.271       .  A
C312        C927   1.531       .  S
C312       O1406   1.272       .  A
C313        C609   1.501       .  S
C313       O1407   1.267       .  A
C314       O1408   1.266       .  A
O315        V323   1.936       .  S
O315        C325   1.274       .  A
O316        V323   1.935       .  S
O316        C326   1.274       .  A
O317        V323   1.896       .  S
O317        C327   1.262       .  A
O318        V323   1.902       .  S
O318        C328   1.263       .  A
O319        V324   1.909       .  S
O319        C328   1.267       .  A
O320        V324   1.908       .  S
O320        C327   1.266       .  A
O321        V324   1.928       .  S
O321        C326   1.271       .  A
O322        V324   1.932       .  S
O322        C325   1.271       .  A
V323        V324   2.080       .  T
C325        C885   1.532       .  S
C326        C899   1.531       .  S
C328        C643   1.497       .  S
O329        V337   1.899   1_556  S
O329        C339   1.264       .  A
O330        V337   1.905       .  S
O330        C340   1.263       .  A
O331       V1441   1.932       .  S
O331        C341   1.272       .  A
O332        V337   1.930       .  S
O332        C342   1.272       .  A
O333        V338   1.920       .  S
O333        C342   1.269   1_655  A
O334       V1442   1.934       .  S
O334        C341   1.273   1_655  A
O335        V338   1.903       .  S
O335        C340   1.266   1_655  A
O336        V338   1.902   1_556  S
O336        C339   1.264   1_655  A
V337       O1435   1.936   1_545  S
V337        V338   2.083   1_455  T
V338       O1438   1.924   1_545  S
C339        C405   1.478       .  S
C340       C1125   1.483       .  S
C341        C854   1.530       .  S
C342        C868   1.516       .  S
O343       V2559   1.936       .  S
O343        C353   1.274   1_655  A
O344       V2559   1.930       .  S
O344        C354   1.272   1_655  A
O345       V2559   1.897       .  S
O345        C355   1.264   1_655  A
O346       V2559   1.897       .  S
O346        C356   1.262   1_654  A
O347        V352   1.902   1_556  S
O347        C356   1.265       .  A
O348        V352   1.906       .  S
O348        C355   1.264       .  A
O349        V352   1.921       .  S
O349        C354   1.269       .  A
O350        V352   1.929       .  S
O350        C353   1.272       .  A
V351       O2551   1.930       .  S
V351       O2552   1.930       .  S
V351       O2553   1.901       .  S
V351       O2554   1.899   1_554  S
V351       V2560   2.080       .  T
V352       V2559   2.084   1_455  T
C353        C857   1.531       .  S
C354        C871   1.517       .  S
C356        C439   1.475       .  S
O357        V365   1.936   1_545  S
O357        C367   1.274       .  A
O358       V1469   1.930       .  S
O358        C368   1.272       .  A
O359        V365   1.903   1_556  S
O359        C369   1.264       .  A
O360        V365   1.905       .  S
O360        C370   1.265       .  A
O361        V366   1.900       .  S
O361        C370   1.264       .  A
O362        V366   1.900   1_556  S
O362        C369   1.263       .  A
O363       V1470   1.935       .  S
O363        C368   1.273       .  A
O364        V366   1.927   1_545  S
O364        C367   1.271       .  A
V365       O1462   1.935       .  S
V365        V366   2.078       .  T
V366       O1467   1.925       .  S
C367        C843   1.529       .  S
C368        C829   1.528       .  S
C369        C473   1.478       .  S
C370       C1193   1.495       .  S
O371        V379   1.927       .  S
O371        C381   1.271       .  A
O372        V379   1.927       .  S
O372        C382   1.271       .  A
O373        V379   1.898       .  S
O373        C383   1.265       .  A
O374        V379   1.897       .  S
O374        C384   1.264   1_554  A
O375        V380   1.897       .  S
O375        C384   1.262   1_554  A
O376        V380   1.899       .  S
O376        C383   1.263       .  A
O377        V380   1.938       .  S
O377        C382   1.274       .  A
O378        V380   1.936       .  S
O378        C381   1.275       .  A
V379        V380   2.078       .  T
C381        C840   1.528       .  S
C382        C826   1.529       .  S
C384        C507   1.474       .  S
N385        C390   1.354       .  A
N385        C389   1.355       .  A
N385        H417   1.041       .  S
N386        C393   1.354       .  A
N386        C394   1.353       .  A
N387        C392   1.351       .  A
N387        C391   1.345       .  A
N387        H418   1.041       .  S
N388        C395   1.345       .  A
N388        C396   1.350       .  A
C389        C397   1.384       .  A
C389       C1509   1.409       .  A
C390        C398   1.391       .  A
C390       C2614   1.418       .  A
C391        C399   1.384       .  A
C391        C408   1.400       .  A
C392        C407   1.412       .  A
C392        C400   1.388       .  A
C393        C405   1.410   1_655  A
C393        C401   1.384       .  A
C394        C402   1.389       .  A
C394       C2616   1.418       .  A
C395        C403   1.387       .  A
C395        C406   1.407       .  A
C396        C404   1.386       .  A
C396       C1511   1.414       .  A
C397        C398   1.373       .  A
C397        H409   1.083       .  S
C398        H410   1.082       .  S
C399        C400   1.378       .  A
C399        H411   1.082       .  S
C400        H412   1.082       .  S
C401        C402   1.372       .  A
C401        H413   1.082       .  S
C402        H414   1.082       .  S
C403        C404   1.376       .  A
C403        H415   1.082       .  S
C404        H416   1.082       .  S
C405       C1493   1.408   1_545  A
C406       C2598   1.420       .  A
C406        C787   1.483       .  S
C407       C1500   1.411   1_545  A
C407       C1919   1.487       .  S
C408       C2602   1.409       .  A
C408        C801   1.471       .  S
N419        C424   1.354       .  A
N419        C423   1.353       .  A
N419        H451   1.039       .  S
N420        C427   1.350       .  A
N420        C428   1.350       .  A
N421        C426   1.353       .  A
N421        C425   1.346       .  A
N421        H452   1.041       .  S
N422        C429   1.342       .  A
N422        C430   1.348       .  A
C423        C431   1.384       .  A
C423        C439   1.410   1_655  A
C424        C432   1.390       .  A
C424       C2648   1.418       .  A
C425        C433   1.385       .  A
C425        C442   1.407       .  A
C426        C441   1.416       .  A
C426        C434   1.388       .  A
C427        C439   1.405       .  A
C427        C435   1.385       .  A
C428        C436   1.388       .  A
C428       C2650   1.410       .  A
C429        C437   1.387       .  A
C429        C440   1.402       .  A
C430        C438   1.386       .  A
C430        C441   1.410       .  A
C431        C432   1.378       .  A
C431        H443   1.083   1_655  S
C432        H444   1.082       .  S
C433        C434   1.379       .  A
C433        H445   1.082       .  S
C434        H446   1.082       .  S
C435        C436   1.372       .  A
C435        H447   1.083       .  S
C436        H448   1.082       .  S
C437        C438   1.376       .  A
C437        H449   1.082       .  S
C438        H450   1.082       .  S
C440       C2632   1.416       .  A
C440        C798   1.473       .  S
C441        C770   1.492       .  S
C442       C2636   1.416       .  A
C442        C784   1.480       .  S
N453        C458   1.352       .  A
N453        C457   1.352       .  A
N453        H485   1.041       .  S
N454        C461   1.352       .  A
N454        C462   1.349       .  A
N455        C460   1.352       .  A
N455        C459   1.345       .  A
N455        H486   1.042       .  S
N456        C463   1.343       .  A
N456        C464   1.348       .  A
C457        C465   1.383       .  A
C457       C1577   1.404       .  A
C458        C474   1.415       .  A
C458        C466   1.391       .  A
C459        C467   1.385       .  A
C459        C476   1.400       .  A
C460        C475   1.412   1_545  A
C460        C468   1.387       .  A
C461        C473   1.407   1_545  A
C461        C469   1.385       .  A
C462        C476   1.410       .  A
C462        C470   1.388       .  A
C463        C471   1.386       .  A
C463        C474   1.404       .  A
C464        C472   1.386       .  A
C464       C1579   1.411       .  A
C465        C466   1.371       .  A
C465        H477   1.083       .  S
C466        H478   1.082       .  S
C467        C468   1.378       .  A
C467        H479   1.082       .  S
C468        H480   1.082       .  S
C469        C470   1.372       .  A
C469        H481   1.082       .  S
C470        H482   1.082       .  S
C471        C472   1.376       .  A
C471        H483   1.083       .  S
C472        H484   1.082       .  S
C473       C1561   1.406       .  A
C474        C731   1.473       .  S
C475       C1568   1.411       .  A
C475        C756   1.489       .  S
C476        C742   1.470       .  S
N487        C492   1.351       .  A
N487        C491   1.354       .  A
N487        H519   1.042       .  S
N488        C495   1.350       .  A
N488        C496   1.349       .  A
N489        C494   1.352       .  A
N489        C493   1.347       .  A
N489        H520   1.040       .  S
N490        C497   1.345       .  A
N490        C498   1.350       .  A
C491        C499   1.384       .  A
C491        C507   1.408       .  A
C492        C508   1.416       .  A
C492        C500   1.391       .  A
C493        C501   1.386       .  A
C493        C510   1.405       .  A
C494        C509   1.413       .  A
C494        C502   1.387       .  A
C495        C507   1.403       .  A
C495        C503   1.384       .  A
C496        C510   1.411       .  A
C496        C504   1.389       .  A
C497        C505   1.387       .  A
C497        C508   1.407       .  A
C498        C506   1.386       .  A
C498        C509   1.413       .  A
C499        C500   1.374       .  A
C499        H511   1.083       .  S
C500        H512   1.082       .  S
C501        C502   1.375       .  A
C501        H513   1.083       .  S
C502        H514   1.082       .  S
C503        C504   1.371       .  A
C503        H515   1.083       .  S
C504        H516   1.082       .  S
C505        C506   1.374       .  A
C505        H517   1.083       .  S
C506        H518   1.082       .  S
C508        C745   1.471       .  S
C509        C714   1.490       .  S
C510        C728   1.472       .  S
N521        C526   1.355       .  A
N521        C525   1.346       .  A
N521        H553   1.039       .  S
N522        C529   1.350       .  A
N522        C530   1.352       .  A
N523        C528   1.350       .  A
N523        C527   1.359       .  A
N523        H554   1.041       .  S
N524        C531   1.353       .  A
N524        C532   1.344       .  A
C525        C533   1.384       .  A
C525        C541   1.408       .  A
C526        C534   1.393       .  A
C526       C2750   1.425       .  A
C527        C535   1.382       .  A
C527        C544   1.413       .  A
C528        C543   1.420       .  A
C528        C536   1.393       .  A
C529        C541   1.414       .  A
C529        C537   1.391       .  A
C530        C538   1.381       .  A
C530       C2752   1.404       .  A
C531        C539   1.388       .  A
C531        C542   1.420       .  A
C532        C540   1.387       .  A
C532        C543   1.409       .  A
C533        C534   1.376       .  A
C533        H545   1.083       .  S
C534        H546   1.080       .  S
C535        C536   1.373       .  A
C535       H1651   1.082       .  S
C536        H548   1.082       .  S
C537        C538   1.370       .  A
C537        H549   1.081       .  S
C538       H1654   1.082       .  S
C539        C540   1.376       .  A
C539        H551   1.080       .  S
C540        H552   1.083       .  S
C541        C700   1.476       .  S
C542       C2734   1.422       .  A
C543        C689   1.470       .  S
C544       C2738   1.407       .  A
C544        C812   1.502       .  S
H547       C1639   1.083   1_545  S
H550       C1642   1.082       .  S
N555        C560   1.357       .  A
N555        C559   1.345       .  A
N555        H587   1.040       .  S
N556        C563   1.346       .  A
N556        C564   1.352       .  A
N557        C562   1.348       .  A
N557        C561   1.354       .  A
N557        H588   1.043       .  S
N558        C565   1.349       .  A
N558        C566   1.341       .  A
C559        C567   1.384       .  A
C559        C575   1.405       .  A
C560        C568   1.391       .  A
C560       C2784   1.423   1_455  A
C561        C569   1.382       .  A
C561        C578   1.405       .  A
C562        C577   1.414       .  A
C562        C570   1.392       .  A
C563        C575   1.411       .  A
C563        C571   1.390       .  A
C564        C572   1.383       .  A
C564       C2786   1.405   1_455  A
C565        C573   1.389       .  A
C565        C576   1.415       .  A
C566        C574   1.387       .  A
C566        C577   1.404       .  A
C567        C568   1.377       .  A
C567        H579   1.083       .  S
C568        H580   1.079       .  S
C569        C570   1.374       .  A
C569        H581   1.082       .  S
C570        H582   1.082       .  S
C571        C572   1.373       .  A
C571        H583   1.082       .  S
C572        H584   1.082       .  S
C573        C574   1.372       .  A
C573        H585   1.080       .  S
C574        H586   1.083       .  S
C575        C672   1.468       .  S
C576       C2768   1.419       .  A
C577        C658   1.466       .  S
C578       C2772   1.404       .  A
C578        C773   1.491       .  S
N589        C594   1.343       .  A
N589        C593   1.357       .  A
N589        H621   1.041       .  S
N590        C597   1.352       .  A
N590        C598   1.342       .  A
N591        C595   1.348       .  A
N591       C1700   1.355       .  A
N591        H622   1.043       .  S
N592        C599   1.347       .  A
N592       C1704   1.352       .  A
C593        C601   1.391       .  A
C593        C609   1.423       .  A
C594        C610   1.404       .  A
C594        C602   1.383       .  A
C595        C612   1.417       .  A
C595       C1707   1.393       .  A
C596       N1695   1.354       .  A
C596        C611   1.404       .  A
C596        C604   1.381       .  A
C597        C609   1.422       .  A
C597        C605   1.389       .  A
C598        C612   1.406       .  A
C598        C606   1.386       .  A
C599        C610   1.411       .  A
C599       C1711   1.390       .  A
C600       N1696   1.352       .  A
C600        C608   1.382       .  A
C600        C611   1.402   1_545  A
C601        C602   1.377       .  A
C601        H613   1.079       .  S
C602        H614   1.083       .  S
C603        C604   1.374       .  A
C603       C1699   1.392       .  A
C603        H615   1.082       .  S
C604        H616   1.083       .  S
C605        C606   1.375       .  A
C605        H617   1.080       .  S
C606        H618   1.083       .  S
C607        C608   1.372       .  A
C607       C1703   1.390       .  A
C607        H619   1.080       .  S
C608        H620   1.083       .  S
C610        C703   1.468       .  S
C611        C759   1.486       .  S
C612        C686   1.470       .  S
N623        C628   1.346       .  A
N623        C627   1.358       .  A
N623        H655   1.041       .  S
N624        C631   1.350       .  A
N624        C632   1.342       .  A
N625        C630   1.354       .  A
N625        C629   1.347       .  A
N625        H656   1.041       .  S
N626        C633   1.347       .  A
N626        C634   1.351       .  A
C627        C635   1.391       .  A
C627        C643   1.427       .  A
C628        C644   1.410       .  A
C628        C636   1.385       .  A
C629        C637   1.392       .  A
C629        C646   1.415       .  A
C630        C645   1.404       .  A
C630        C638   1.382       .  A
C631        C643   1.417       .  A
C631        C639   1.390       .  A
C632        C646   1.404       .  A
C632        C640   1.385       .  A
C633        C641   1.391       .  A
C633        C644   1.412       .  A
C634        C642   1.381       .  A
C634        C645   1.401       .  A
C635        C636   1.379       .  A
C635        H647   1.080       .  S
C636        H648   1.083       .  S
C637        C638   1.376       .  A
C637        H649   1.082       .  S
C638        H650   1.082       .  S
C639        C640   1.374       .  A
C639        H651   1.079       .  S
C640        H652   1.083       .  S
C641        C642   1.372       .  A
C641        H653   1.081       .  S
C642        H654   1.082       .  S
C644        C675   1.473       .  S
C645        C717   1.484       .  S
C646        C661   1.466       .  S
C657        C658   1.399       .  A
C657        C662   1.380       .  A
C657        H664   1.085       .  S
C658        C659   1.410       .  A
C659        C660   1.398       .  A
C659        N666   1.437       .  S
C660        C661   1.401       .  A
C660        H665   1.083       .  S
C661        C662   1.411       .  A
C662        N663   1.434       .  S
N663        H667   1.046       .  S
N663        H668   1.042       .  S
N666        H669   1.043       .  S
N666        H670   1.046       .  S
C671        C672   1.402       .  A
C671        C676   1.400       .  A
C671        H678   1.084       .  S
C672        C673   1.410       .  A
C673        C674   1.380       .  A
C673        N680   1.434       .  S
C674        C675   1.400       .  A
C674        H679   1.085       .  S
C675        C676   1.416       .  A
C676        N677   1.436       .  S
N677        H681   1.046       .  S
N677        H682   1.043       .  S
N680        H683   1.045       .  S
N680        H684   1.044       .  S
C685        C690   1.384       .  A
C685       C1790   1.399       .  A
C685        H692   1.085       .  S
C686        C687   1.407       .  A
C686       C1789   1.399       .  A
C687        C688   1.400       .  A
C687        N694   1.430       .  S
C688        C689   1.404       .  A
C688        H693   1.083       .  S
C689       C1794   1.405       .  A
C690       C1793   1.403       .  A
C690        N691   1.434   1_565  S
N691        H695   1.046       .  S
N691        H696   1.045       .  S
N694        H697   1.046       .  S
N694        H698   1.043       .  S
C699        C704   1.400       .  A
C699       C1804   1.403       .  A
C699        H706   1.084       .  S
C700        C701   1.409       .  A
C700       C1803   1.406       .  A
C701        C702   1.387       .  A
C701        N708   1.434       .  S
C702        C703   1.398       .  A
C702        H707   1.085       .  S
C703       C1808   1.405       .  A
C704       C1807   1.399       .  A
C704        N705   1.428       .  S
N705        H709   1.046       .  S
N705        H710   1.044       .  S
N708        H711   1.046       .  S
N708        H712   1.046       .  S
C713        C714   1.403       .  A
C713        C718   1.399       .  A
C713        H720   1.084       .  S
C714        C715   1.413       .  A
C715        C716   1.407       .  A
C715        N722   1.438       .  S
C716        C717   1.402       .  A
C716        H721   1.084       .  S
C717        C718   1.411       .  A
C718        N719   1.432       .  S
N719        H723   1.046       .  S
N719        H724   1.045       .  S
N722        H725   1.045       .  S
N722        H726   1.046       .  S
C727        C728   1.398       .  A
C727        C732   1.385       .  A
C727        H734   1.085       .  S
C728        C729   1.410       .  A
C729        C730   1.408       .  A
C729        N736   1.437       .  S
C730        C731   1.404       .  A
C730        H735   1.083       .  S
C731        C732   1.406       .  A
C732        N733   1.434       .  S
N733        H737   1.045       .  S
N733        H738   1.046       .  S
N736        H739   1.044       .  S
N736        H740   1.046       .  S
C741        C742   1.401       .  A
C741        C746   1.385       .  A
C741        H748   1.085       .  S
C742        C743   1.414       .  A
C743        C744   1.403       .  A
C743        N750   1.437       .  S
C744        C745   1.403       .  A
C744        H749   1.083       .  S
C745        C746   1.402       .  A
C746        N747   1.434       .  S
N747        H751   1.045       .  S
N747        H752   1.046       .  S
N750        H753   1.044       .  S
N750        H754   1.046       .  S
C755        C760   1.404       .  A
C755       C1860   1.403       .  A
C755        H762   1.084       .  S
C756        C757   1.412   1_565  A
C756       C1859   1.402       .  A
C757        C758   1.407       .  A
C757        N764   1.438       .  S
C758        C759   1.404   1_545  A
C758        H763   1.084       .  S
C759       C1864   1.416       .  A
C760       C1863   1.417       .  A
C760        N761   1.438       .  S
N761        H765   1.046       .  S
N761        H766   1.043       .  S
N764        H767   1.045       .  S
N764        H768   1.045       .  S
C769        C770   1.403       .  A
C769        C774   1.397       .  A
C769        H776   1.084       .  S
C770       C2979   1.413       .  A
C771        C772   1.403   1_455  A
C771       C2978   1.411   1_455  A
C771        N778   1.438       .  S
C772       C2981   1.403       .  A
C772        H777   1.084   1_655  S
C773        C774   1.414       .  A
C773       C2980   1.405       .  A
C774        N775   1.433       .  S
N775        H779   1.043       .  S
N775        H780   1.045       .  S
N778        H781   1.047       .  S
N778        H782   1.044       .  S
C783        C788   1.406       .  A
C783       C2992   1.405       .  A
C783        H790   1.084       .  S
C784        C785   1.407       .  A
C784       C2991   1.405       .  A
C785        C786   1.389       .  A
C785        N792   1.434       .  S
C786        C787   1.401       .  A
C786        H791   1.085       .  S
C787       C2996   1.417       .  A
C788       C2995   1.416       .  A
C788        N789   1.437       .  S
N789        H793   1.046       .  S
N789        H794   1.044       .  S
N792        H795   1.046       .  S
N792        H796   1.045       .  S
C797        C798   1.403       .  A
C797        C802   1.404       .  A
C797        H804   1.083       .  S
C798       C3007   1.410       .  A
C799        C800   1.387       .  A
C799       C3006   1.413       .  A
C799        N806   1.433   1_655  S
C800       C3009   1.399       .  A
C800        H805   1.085   1_655  S
C801        C802   1.414       .  A
C801       C3008   1.399       .  A
C802        N803   1.437       .  S
N803        H807   1.046       .  S
N803        H808   1.044       .  S
N806        H809   1.047       .  S
N806        H810   1.042   1_455  S
C811        C812   1.406       .  A
C811        C816   1.402       .  A
C811        H818   1.084       .  S
C812       C4125   1.419       .  A
C813        C814   1.403       .  A
C813       C4124   1.419       .  A
C813        N820   1.433       .  S
C814       C4127   1.404       .  A
C814        H819   1.084       .  S
C815        C816   1.416       .  A
C815       C4126   1.404       .  A
C815       C1511   1.498       .  S
C816        N817   1.433       .  S
N817        H821   1.042       .  S
N817        H822   1.046       .  S
N820        H823   1.045       .  S
N820        H824   1.043       .  S
C825        C826   1.412       .  A
C825        C830   1.420       .  A
C825        H832   1.083       .  S
C826        C827   1.423       .  A
C827        C828   1.427       .  A
C827        N834   1.437       .  S
C828        C829   1.413       .  A
C828        H833   1.083       .  S
C829        C830   1.418       .  A
C830        N831   1.432       .  S
N831        H835   1.045       .  S
N831        H836   1.046       .  S
N834        H837   1.046       .  S
N834        H838   1.045       .  S
C839        C840   1.410       .  A
C839        C844   1.420       .  A
C839        H846   1.083       .  S
C840        C841   1.424       .  A
C841        C842   1.426       .  A
C841        N848   1.437       .  S
C842        C843   1.412       .  A
C842        H847   1.083       .  S
C843        C844   1.420       .  A
C844        N845   1.431       .  S
N845        H849   1.046       .  S
N845        H850   1.045       .  S
N848        H851   1.046       .  S
N848        H852   1.046       .  S
C853        C854   1.413   1_655  A
C853        C858   1.427       .  A
C853       H3068   1.083       .  S
C854        C855   1.419       .  A
C855        C856   1.421       .  A
C855        N862   1.432       .  S
C856        C857   1.413       .  A
C856        H861   1.083       .  S
C857        C858   1.423   1_455  A
C858       N3067   1.437       .  S
N859       C3066   1.437       .  S
N859        H863   1.045       .  S
N859        H864   1.046       .  S
H860       C3061   1.083       .  S
N862        H865   1.046       .  S
N862        H866   1.046       .  S
C867        C868   1.408       .  A
C867        C872   1.418       .  A
C867        H874   1.083       .  S
C868        C869   1.418   1_455  A
C869        C870   1.419       .  A
C869       N3084   1.432       .  S
C870        C871   1.410   1_655  A
C870       H3083   1.083       .  S
C871        C872   1.418       .  A
C872        N873   1.432       .  S
N873        H877   1.046       .  S
N873        H878   1.046       .  S
H875       C3078   1.083       .  S
N876       C3077   1.431       .  S
N876        H879   1.046       .  S
N876        H880   1.045       .  S
C881        C882   1.412       .  A
C881        C886   1.420       .  A
C881        H888   1.083       .  S
C882        C883   1.420       .  A
C883        C884   1.427       .  A
C883        N890   1.432       .  S
C884        C885   1.416       .  A
C884        H889   1.083       .  S
C885        C886   1.418       .  A
C886        N887   1.431       .  S
N887        H891   1.046       .  S
N887        H892   1.046       .  S
N890        H893   1.046       .  S
N890        H894   1.046       .  S
C895        C896   1.414       .  A
C895        C900   1.426       .  A
C895        H902   1.083       .  S
C896        C897   1.422       .  A
C897        C898   1.424       .  A
C897        N904   1.437       .  S
C898        C899   1.413       .  A
C898        H903   1.083       .  S
C899        C900   1.422       .  A
C900        N901   1.437       .  S
N901        H905   1.045       .  S
N901        H906   1.046       .  S
N904        H907   1.046       .  S
N904        H908   1.046       .  S
C909        C910   1.411       .  A
C909        C914   1.422       .  A
C909        H916   1.083       .  S
C910       C2015   1.422       .  A
C911        C912   1.424       .  A
C911       C2014   1.423   1_545  A
C911        N918   1.437       .  S
C912       C2017   1.412   1_545  A
C912        H917   1.083       .  S
C913        C914   1.421       .  A
C913       C2016   1.412       .  A
C914        N915   1.437       .  S
N915        H919   1.046       .  S
N915        H920   1.046       .  S
N918        H921   1.046       .  S
N918        H922   1.045       .  S
C923        C928   1.423       .  A
C923       C2028   1.412   1_545  A
C923        H930   1.083       .  S
C924        C925   1.422       .  A
C924       C2027   1.413       .  A
C925        C926   1.422       .  A
C925        N932   1.432       .  S
C926        C927   1.411       .  A
C926        H931   1.083       .  S
C927       C2032   1.421       .  A
C928       C2031   1.421   1_545  A
C928        N929   1.432       .  S
N929        H933   1.045       .  S
N929        H934   1.046       .  S
N932        H935   1.045       .  S
N932        H936   1.046       .  S
C937        C938   1.404       .  A
C937        C942   1.404       .  A
C937        H944   1.081       .  S
C938        C939   1.410       .  A
C939        C940   1.389       .  A
C939        N946   1.440       .  S
C940        C941   1.398       .  A
C940        H945   1.085       .  S
C941        C942   1.405       .  A
C942        N943   1.431       .  S
N943        H947   1.045       .  S
N943        H948   1.045       .  S
N946        H949   1.046       .  S
N946        H950   1.046       .  S
C951        C952   1.404       .  A
C951        C956   1.403       .  A
C951        H958   1.084       .  S
C952        C953   1.408       .  A
C953        C954   1.386       .  A
C953        N960   1.434       .  S
C954        C955   1.398       .  A
C954        H959   1.085       .  S
C955        C956   1.408       .  A
C956        N957   1.431       .  S
N957        H961   1.044       .  S
N957        H962   1.046       .  S
N960        H963   1.046       .  S
N960        H964   1.046       .  S
C965        C966   1.398       .  A
C965        C970   1.386       .  A
C965        H972   1.085       .  S
C966       C2071   1.405       .  A
C967        C968   1.402       .  A
C967       C2070   1.405       .  A
C967        N974   1.431       .  S
C968        C969   1.404       .  A
C968        H973   1.083       .  S
C969       C2074   1.414       .  A
C970       C2073   1.410       .  A
C970        N971   1.434       .  S
N971        H975   1.046       .  S
N971        H976   1.045   1_565  S
N974        H977   1.044       .  S
N974        H978   1.046       .  S
C979        C980   1.400       .  A
C979        C984   1.386       .  A
C979        H986   1.085       .  S
C980       C2085   1.415       .  A
C981        C982   1.402       .  A
C981       C2084   1.410       .  A
C981        N988   1.431       .  S
C982        C983   1.403       .  A
C982        H987   1.083       .  S
C983       C2088   1.405       .  A
C984       C2087   1.405       .  A
C984        N985   1.434       .  S
N985        H989   1.045       .  S
N985        H990   1.046       .  S
N988        H991   1.046       .  S
N988        H992   1.045       .  S
C993        C994   1.401       .  A
C993        C998   1.404       .  A
C993       H1000   1.084       .  S
C994        C995   1.413       .  A
C995        C996   1.404       .  A
C995       N1002   1.432       .  S
C996        C997   1.407       .  A
C996       H1001   1.084       .  S
C997        C998   1.419       .  A
C998        N999   1.438       .  S
N999       H1003   1.046       .  S
N999       H1004   1.043       .  S
N1002      H1005   1.046       .  S
N1002      H1006   1.045       .  S
C1007      C1008   1.404       .  A
C1007      C1012   1.402       .  A
C1007      H1014   1.084       .  S
C1008      C1009   1.408       .  A
C1009      C1010   1.383       .  A
C1009      N1016   1.434       .  S
C1010      C1011   1.402       .  A
C1010      H1015   1.085       .  S
C1011      C1012   1.413       .  A
C1012      N1013   1.437       .  S
N1013      H1017   1.045       .  S
N1013      H1018   1.044       .  S
N1016      H1019   1.046       .  S
N1016      H1020   1.044       .  S
C1021      C1022   1.398       .  A
C1021      C1026   1.391       .  A
C1021      H1028   1.084       .  S
C1022      C1023   1.409       .  A
C1023      C1024   1.408       .  A
C1023      N1030   1.436       .  S
C1024      C1025   1.404       .  A
C1024      H1029   1.083       .  S
C1025      C1026   1.410       .  A
C1026      N1027   1.439       .  S
N1027      H1031   1.046       .  S
N1027      H1032   1.045       .  S
N1030      H1033   1.046       .  S
N1030      H1034   1.045       .  S
C1035      C1036   1.403       .  A
C1035      C1040   1.401       .  A
C1035      H1042   1.084       .  S
C1036      C2141   1.412       .  A
C1037      C1038   1.403       .  A
C1037      C2140   1.413       .  A
C1037      N1044   1.432   1_565  S
C1038      C2143   1.404       .  A
C1038      H1043   1.084   1_565  S
C1039      C1040   1.413       .  A
C1039      C2142   1.405       .  A
C1040      N1041   1.432       .  S
N1041      H1045   1.044       .  S
N1041      H1046   1.046       .  S
N1044      H1047   1.045       .  S
N1044      H1048   1.045   1_545  S
C1049      C1050   1.404       .  A
C1049      C1054   1.405       .  A
C1049      H1056   1.084       .  S
C1050      C3259   1.418       .  A
C1051      C1052   1.405       .  A
C1051      C3258   1.414       .  A
C1051      N1058   1.432       .  S
C1052      C3261   1.405   1_455  A
C1052      H1057   1.084       .  S
C1053      C1054   1.406       .  A
C1053      C3260   1.402       .  A
C1054      N1055   1.432       .  S
N1055      H1059   1.046       .  S
N1055      H1060   1.045       .  S
N1058      H1061   1.045       .  S
N1058      H1062   1.045       .  S
C1063      C1064   1.408       .  A
C1063      C1068   1.411       .  A
C1063      H1070   1.083       .  S
C1064      C3273   1.407       .  A
C1065      C1066   1.387       .  A
C1065      C3272   1.408       .  A
C1065      N1072   1.434   1_655  S
C1066      C3275   1.398       .  A
C1066      H1071   1.085       .  S
C1067      C1068   1.409       .  A
C1067      C3274   1.401       .  A
C1068      N1069   1.436       .  S
N1069      H1073   1.046       .  S
N1069      H1074   1.046       .  S
N1072      H1075   1.046       .  S
N1072      H1076   1.046       .  S
C1077      C1078   1.398       .  A
C1077      C1082   1.383       .  A
C1077      H1084   1.085       .  S
C1078      C3287   1.412       .  A
C1079      C1080   1.401       .  A
C1079      C3286   1.410       .  A
C1079      N1086   1.431       .  S
C1080      C3289   1.403       .  A
C1080      H1085   1.083       .  S
C1081      C1082   1.412       .  A
C1081      C3288   1.403       .  A
C1081      C2230   1.475       .  S
C1082      N1083   1.434       .  S
N1083      H1087   1.044       .  S
N1083      H1088   1.045       .  S
N1086      H1089   1.046       .  S
N1086      H1090   1.045       .  S
C1091      C3300   1.403   1_565  A
C1091      C2200   1.399       .  A
C1091      H2202   1.084       .  S
C1092      C1093   1.408       .  A
C1092      C3299   1.403   1_545  A
C1093      C1094   1.406       .  A
C1093      N1100   1.432       .  S
C1094      C1095   1.404       .  A
C1094      H1099   1.084       .  S
C1095      C4408   1.412   1_545  A
C1096      C2195   1.405       .  A
C1096      C4407   1.420       .  A
C1096      N1097   1.438       .  S
N1097      H1101   1.045       .  S
N1097      H1102   1.043       .  S
H1098      C2195   1.084       .  S
N1100      H1103   1.046       .  S
N1100      H1104   1.046       .  S
N1105      C1110   1.353       .  A
N1105      C1109   1.354       .  A
N1105      H1137   1.037       .  S
N1106      C1113   1.352   1_655  A
N1106      C1114   1.350       .  A
N1107      C1112   1.356       .  A
N1107      C1111   1.348       .  A
N1107      H1138   1.038       .  S
N1108      C1115   1.343       .  A
N1108      C1116   1.347       .  A
C1109      C1117   1.385       .  A
C1110      C1126   1.418       .  A
C1110      C1118   1.391       .  A
C1111      C1119   1.386       .  A
C1111      C1128   1.411       .  A
C1112      C1120   1.387       .  A
C1113      C1125   1.405   1_565  A
C1113      C1121   1.383   1_455  A
C1114      C3336   1.413       .  A
C1114      C1122   1.390       .  A
C1115      C1123   1.386       .  A
C1115      C3334   1.402       .  A
C1116      C1124   1.386       .  A
C1116      C1127   1.409       .  A
C1117      C1118   1.372       .  A
C1117      H1129   1.083       .  S
C1118      H1130   1.082       .  S
C1119      C1120   1.377       .  A
C1119      H1131   1.082       .  S
C1120      H1132   1.082       .  S
C1121      C1122   1.369       .  A
C1121      H1133   1.083   1_655  S
C1122      H1134   1.081       .  S
C1123      C1124   1.377       .  A
C1123      H1135   1.083       .  S
C1124      H1136   1.082       .  S
C1126      C3323   1.407       .  A
C1126      C4393   1.477       .  S
C1127      C2199   1.483       .  S
C1128      C3322   1.415       .  A
C1128      C2168   1.478       .  S
N1139      C1144   1.354       .  A
N1139      C1143   1.355       .  A
N1139      H1171   1.040       .  S
N1140      C1147   1.351       .  A
N1140      C1148   1.351       .  A
N1141      C1146   1.354       .  A
N1141      C1145   1.344       .  A
N1141      H1172   1.037       .  S
N1142      C1149   1.344       .  A
N1142      C1150   1.350       .  A
C1143      C1151   1.385       .  A
C1143      C1159   1.411       .  A
C1144      C3368   1.419       .  A
C1144      C1152   1.390       .  A
C1145      C1153   1.386       .  A
C1145      C1162   1.406       .  A
C1146      C1161   1.414       .  A
C1146      C1154   1.387       .  A
C1147      C1159   1.407   1_655  A
C1147      C1155   1.385       .  A
C1148      C3370   1.412       .  A
C1148      C1156   1.389       .  A
C1149      C1157   1.388       .  A
C1149      C1160   1.407       .  A
C1150      C1158   1.385       .  A
C1150      C1161   1.412       .  A
C1151      C1152   1.377       .  A
C1151      H1163   1.083       .  S
C1152      H1164   1.082       .  S
C1153      C1154   1.379       .  A
C1153      H1165   1.083       .  S
C1154      H1166   1.082       .  S
C1155      C1156   1.372       .  A
C1155      H1167   1.082       .  S
C1156      H1168   1.082       .  S
C1157      C1158   1.374       .  A
C1157      H1169   1.083       .  S
C1158      H1170   1.082       .  S
C1159      C1459   1.478       .  S
C1160      C3352   1.420       .  A
C1160      C2182   1.475       .  S
C1161      C2154   1.488       .  S
C1162      C3356   1.415       .  A
C1162      C2171   1.474       .  S
N1173      C1178   1.347       .  A
N1173      C1177   1.356       .  A
N1173      H1205   1.039       .  S
N1174      C1181   1.350       .  A
N1174      C1182   1.342       .  A
N1175      C1180   1.355       .  A
N1175      C1179   1.351       .  A
N1175      H1206   1.041       .  S
N1176      C1183   1.350       .  A
N1176      C1184   1.352       .  A
C1177      C1185   1.392       .  A
C1177      C1193   1.424       .  A
C1178      C1194   1.407       .  A
C1178      C1186   1.383       .  A
C1179      C1187   1.391       .  A
C1179      C1196   1.418       .  A
C1180      C1188   1.383       .  A
C1181      C1189   1.390       .  A
C1182      C1196   1.405       .  A
C1182      C1190   1.385       .  A
C1183      C1191   1.389       .  A
C1183      C1194   1.414       .  A
C1184      C1192   1.381       .  A
C1184      C1195   1.405       .  A
C1185      C1186   1.378       .  A
C1185      H1197   1.079       .  S
C1186      H1198   1.083       .  S
C1187      C1188   1.376       .  A
C1187      H1199   1.082       .  S
C1188      H1200   1.082       .  S
C1189      C1190   1.374       .  A
C1189      H1201   1.079       .  S
C1190      H1202   1.083       .  S
C1191      C1192   1.372       .  A
C1191      H1203   1.080       .  S
C1192      H1204   1.082       .  S
C1194      C2115   1.479       .  S
C1195      C2140   1.490       .  S
C1196      C2126   1.470       .  S
N1207      C1212   1.347       .  A
N1207      C1211   1.356       .  A
N1207      H1239   1.039       .  S
N1208      C1215   1.351       .  A
N1208      C1216   1.346       .  A
N1209      C1214   1.354       .  A
N1209      C1213   1.351       .  A
N1209      H1240   1.040       .  S
N1210      C1217   1.349       .  A
N1210      C1218   1.352       .  A
C1211      C1219   1.392       .  A
C1211      C1227   1.423       .  A
C1212      C1228   1.406       .  A
C1212      C1220   1.382       .  A
C1213      C1221   1.391       .  A
C1213      C1230   1.417       .  A
C1214      C1229   1.408       .  A
C1214      C1222   1.383       .  A
C1215      C1227   1.421       .  A
C1215      C1223   1.390       .  A
C1216      C1230   1.407       .  A
C1216      C1224   1.385       .  A
C1217      C1225   1.389       .  A
C1217      C1228   1.412       .  A
C1218      C1226   1.383       .  A
C1218      C1229   1.406       .  A
C1219      C1220   1.378       .  A
C1219      H1231   1.079       .  S
C1220      H1232   1.083       .  S
C1221      C1222   1.375       .  A
C1221      H1233   1.081       .  S
C1222      H1234   1.083       .  S
C1223      C1224   1.373       .  A
C1223      H1235   1.080       .  S
C1224      H1236   1.083       .  S
C1225      C1226   1.372       .  A
C1225      H1237   1.081       .  S
C1226      H1238   1.082       .  S
C1227      C1487   1.494       .  S
C1228      C2112   1.477       .  S
C1229      C2098   1.486       .  S
C1230      C2129   1.478       .  S
N1241      C1246   1.352       .  A
N1241      C1245   1.354       .  A
N1241      H1273   1.041       .  S
N1242      C1249   1.352       .  A
N1242      C1250   1.350       .  A
N1243      C1248   1.354       .  A
N1243      C1247   1.346       .  A
N1243      H1274   1.038       .  S
N1244      C1251   1.343       .  A
N1244      C1252   1.349       .  A
C1245      C1253   1.383       .  A
C1245      C3469   1.407       .  A
C1246      C1262   1.418       .  A
C1246      C1254   1.392       .  A
C1247      C1255   1.387       .  A
C1247      C1264   1.408       .  A
C1248      C1263   1.413       .  A
C1248      C1256   1.387       .  A
C1249      C1261   1.404       .  A
C1249      C1257   1.382       .  A
C1250      C1264   1.415       .  A
C1250      C1258   1.391       .  A
C1251      C1259   1.388       .  A
C1251      C1262   1.407       .  A
C1252      C1260   1.385       .  A
C1252      C3471   1.411       .  A
C1253      C1254   1.375       .  A
C1253      H1265   1.083       .  S
C1254      H1266   1.082       .  S
C1255      C1256   1.377       .  A
C1255      H1267   1.083       .  S
C1256      H1268   1.082       .  S
C1257      C1258   1.372       .  A
C1257      H1269   1.083       .  S
C1258      H1270   1.081       .  S
C1259      C1260   1.376       .  A
C1259      H1271   1.083       .  S
C1260      H1272   1.082       .  S
C1261      C3453   1.406       .  A
C1262      C2087   1.474       .  S
C1263      C3460   1.408       .  A
C1263      C2196   1.483       .  S
C1264      C2070   1.474       .  S
N1275      C1280   1.351       .  A
N1275      C1279   1.352       .  A
N1275      H1307   1.041   1_455  S
N1276      C1283   1.353       .  A
N1276      C1284   1.351       .  A
N1277      C1282   1.353       .  A
N1277      C1281   1.347       .  A
N1277      H1308   1.038       .  S
N1278      C1285   1.344       .  A
N1278      C1286   1.348       .  A
C1279      C1287   1.386       .  A
C1279      C3503   1.407   1_455  A
C1280      C1296   1.412       .  A
C1280      C1288   1.389       .  A
C1281      C1289   1.385       .  A
C1281      C1298   1.404       .  A
C1282      C1297   1.414       .  A
C1282      C1290   1.388       .  A
C1283      C1295   1.409       .  A
C1283      C1291   1.385       .  A
C1284      C1298   1.412       .  A
C1284      C1292   1.387       .  A
C1285      C1293   1.386       .  A
C1285      C1296   1.404       .  A
C1286      C1294   1.387       .  A
C1286      C3505   1.409   1_455  A
C1287      C1288   1.371       .  A
C1287      H1299   1.082       .  S
C1288      H1300   1.082       .  S
C1289      C1290   1.376       .  A
C1289      H1301   1.083       .  S
C1290      H1302   1.082       .  S
C1291      C1292   1.373       .  A
C1291      H1303   1.082       .  S
C1292      H1304   1.082       .  S
C1293      C1294   1.370       .  A
C1293      H1305   1.083       .  S
C1294      H1306   1.082       .  S
C1295      C3487   1.409       .  A
C1295      C1404   1.479       .  S
C1296      C2056   1.470       .  S
C1297      C3494   1.412       .  A
C1297      C2157   1.488       .  S
C1298      C2042   1.475       .  S
N1309      C1314   1.351       .  A
N1309      C1313   1.354       .  A
N1309      H1341   1.041       .  S
N1310      C1317   1.352       .  A
N1310      C1318   1.351       .  A
N1311      C1316   1.354       .  A
N1311      C1315   1.346       .  A
N1311      H1342   1.039       .  S
N1312      C1319   1.343       .  A
N1312      C1320   1.349       .  A
C1313      C1321   1.384       .  A
C1313      C1329   1.407   1_545  A
C1314      C1330   1.416       .  A
C1314      C1322   1.391       .  A
C1315      C1323   1.386       .  A
C1315      C1332   1.406       .  A
C1316      C1331   1.415       .  A
C1316      C1324   1.386       .  A
C1317      C1329   1.406       .  A
C1317      C1325   1.383       .  A
C1318      C1332   1.415       .  A
C1318      C1326   1.391       .  A
C1319      C1327   1.387       .  A
C1319      C1330   1.404       .  A
C1320      C1328   1.386       .  A
C1320      C1331   1.412   1_545  A
C1321      C1322   1.372       .  A
C1321      H1333   1.083       .  S
C1322      H1334   1.082       .  S
C1323      C1324   1.380       .  A
C1323      H1335   1.082       .  S
C1324      H1336   1.082       .  S
C1325      C1326   1.372       .  A
C1325      H1337   1.083       .  S
C1326      H1338   1.080       .  S
C1327      C1328   1.376       .  A
C1327      H1339   1.083       .  S
C1328      H1340   1.082       .  S
C1329      C1418   1.477       .  S
C1330      C2084   1.470       .  S
C1331      C2143   1.492       .  S
C1332      C2073   1.477       .  S
N1343      C1348   1.352       .  A
N1343      C1347   1.352       .  A
N1343      H1375   1.042       .  S
N1344      C1351   1.353       .  A
N1344      C1352   1.351       .  A
N1345      C1350   1.353       .  A
N1345      C1349   1.346       .  A
N1345      H1376   1.039       .  S
N1346      C1353   1.342       .  A
N1346      C1354   1.347       .  A
C1347      C1355   1.384       .  A
C1347      C1363   1.405       .  A
C1348      C1364   1.415       .  A
C1348      C1356   1.391       .  A
C1349      C1357   1.386       .  A
C1349      C1366   1.406       .  A
C1350      C1365   1.415       .  A
C1350      C1358   1.387       .  A
C1351      C1363   1.406       .  A
C1351      C1359   1.383       .  A
C1352      C1366   1.414       .  A
C1352      C1360   1.389       .  A
C1353      C1361   1.386       .  A
C1353      C1364   1.402       .  A
C1354      C1362   1.386       .  A
C1354      C1365   1.410       .  A
C1355      C1356   1.372       .  A
C1355      H1367   1.083       .  S
C1356      H1368   1.082       .  S
C1357      C1358   1.378       .  A
C1357      H1369   1.083       .  S
C1358      H1370   1.082       .  S
C1359      C1360   1.371       .  A
C1359      H1371   1.083       .  S
C1360      H1372   1.081       .  S
C1361      C1362   1.377       .  A
C1361      H1373   1.083       .  S
C1362      H1374   1.082       .  S
C1363      C1431   1.475       .  S
C1364      C2059   1.470       .  S
C1365      C2101   1.487       .  S
C1366      C2045   1.472       .  S
O1377      V1385   1.929       .  S
O1378      V3593   1.942       .  S
O1379      V1385   1.900       .  S
O1380      V1385   1.894       .  S
O1381      V1386   1.909       .  S
O1381      C1390   1.266       .  A
O1382      V1386   1.907       .  S
O1382      C1389   1.266       .  A
O1383      V3594   1.931       .  S
O1383      C1388   1.272       .  A
O1384      V1386   1.930       .  S
O1384      C1387   1.272       .  A
V1385      O3586   1.938       .  S
V1386      O3591   1.932       .  S
C1387      C2014   1.529       .  S
C1388      C2028   1.531       .  S
C1390      C1646   1.493       .  S
O1391      V1399   1.936       .  S
O1391      C1401   1.273       .  A
O1392      V3607   1.932   1_455  S
O1392      C1402   1.272       .  A
O1393      V1399   1.896       .  S
O1393      C1403   1.264       .  A
O1394      V1399   1.902       .  S
O1394      C1404   1.264       .  A
O1395      V1400   1.898       .  S
O1395      C1404   1.263       .  A
O1396      V1400   1.897       .  S
O1396      C1403   1.263       .  A
O1397      V3608   1.937   1_455  S
O1397      C1402   1.275       .  A
O1398      V1400   1.935       .  S
O1398      C1401   1.274       .  A
V1399      O3600   1.935       .  S
V1399      V1400   2.080       .  T
V1400      O3605   1.939       .  S
C1401      C1986   1.535       .  S
C1402      C2000   1.535       .  S
C1403      C1680   1.481       .  S
O1405      V1413   1.928       .  S
O1406      V1413   1.932       .  S
O1407      V1413   1.911       .  S
O1408      V1413   1.907       .  S
O1409      V1414   1.896       .  S
O1409      C1418   1.262       .  A
O1410      V1414   1.896       .  S
O1410      C1417   1.263       .  A
O1411      V1414   1.938       .  S
O1411      C1416   1.275       .  A
O1412      V1414   1.936       .  S
O1412      C1415   1.274       .  A
C1415      C2017   1.527       .  S
C1416      C2031   1.530       .  S
C1417      C1713   1.489       .  S
O1419      V1427   1.941       .  S
O1419      C1429   1.275       .  A
O1420      V1427   1.942       .  S
O1420      C1430   1.275       .  A
O1421      V1427   1.894       .  S
O1421      C1431   1.262       .  A
O1422      V1427   1.896       .  S
O1422      C1432   1.262       .  A
O1423      V1428   1.902       .  S
O1423      C1432   1.265       .  A
O1424      V1428   1.902       .  S
O1424      C1431   1.264       .  A
O1425      V1428   1.930       .  S
O1425      C1430   1.272       .  A
O1426      V1428   1.933       .  S
O1426      C1429   1.273       .  A
V1427      V1428   2.079       .  T
C1429      C1989   1.535       .  S
C1430      C2003   1.536       .  S
C1432      C1747   1.493       .  S
O1433      V1441   1.901       .  S
O1433      C1443   1.264   1_554  A
O1434      V1441   1.901       .  S
O1434      C1444   1.264       .  A
O1435      C1445   1.274       .  A
O1436      V1441   1.933       .  S
O1436      C1446   1.273       .  A
O1437      V1442   1.933       .  S
O1437      C1446   1.273   1_655  A
O1438      C1445   1.271   1_655  A
O1439      V1442   1.900       .  S
O1439      C1444   1.263   1_655  A
O1440      V1442   1.899   1_556  S
O1440      C1443   1.263   1_655  A
V1441      V1442   2.082   1_455  T
C1443      C1509   1.478       .  S
C1445      C1958   1.526       .  S
C1446      C1972   1.530       .  S
O1447      V3663   1.935       .  S
O1447      C1457   1.274   1_655  A
O1448      V3663   1.935       .  S
O1448      C1458   1.274   1_655  A
O1449      V3663   1.895       .  S
O1449      C1459   1.262   1_655  A
O1450      V3663   1.901   1_556  S
O1450      C1460   1.264   1_655  A
O1451      V1456   1.910   1_556  S
O1451      C1460   1.266       .  A
O1452      V1456   1.907       .  S
O1452      C1459   1.265       .  A
O1453      V1456   1.929       .  S
O1453      C1458   1.271       .  A
O1454      V1456   1.929       .  S
O1454      C1457   1.271       .  A
V1455      O3655   1.940       .  S
V1455      O3656   1.938       .  S
V1455      O3657   1.901       .  S
V1455      O3658   1.903   1_554  S
V1455      V3664   2.080       .  T
V1456      V3663   2.083   1_455  T
C1457      C1961   1.526       .  S
C1458      C1975   1.530       .  S
C1460      C1543   1.486       .  S
O1461      V1469   1.925       .  S
O1461      C1471   1.271       .  A
O1462      C1472   1.273       .  A
O1463      V1469   1.893       .  S
O1463      C1473   1.264   1_554  A
O1464      V1469   1.896       .  S
O1464      C1474   1.263       .  A
O1465      V1470   1.905       .  S
O1465      C1474   1.265       .  A
O1466      V1470   1.901       .  S
O1466      C1473   1.264   1_554  A
O1467      C1472   1.271       .  A
O1468      V1470   1.932       .  S
O1468      C1471   1.273       .  A
V1469      V1470   2.077       .  T
C1471      C1947   1.525       .  S
C1472      C1933   1.527       .  S
C1473      C1577   1.476       .  S
O1475      V1483   1.931       .  S
O1475      C1485   1.272       .  A
O1476      V1483   1.936       .  S
O1476      C1486   1.273       .  A
O1477      V1483   1.908       .  S
O1477      C1487   1.266       .  A
O1478      V1483   1.905   1_556  S
O1478      C1488   1.265       .  A
O1479      V1484   1.898   1_556  S
O1479      C1488   1.262       .  A
O1480      V1484   1.896       .  S
O1480      C1487   1.263       .  A
O1481      V1484   1.924       .  S
O1481      C1486   1.271       .  A
O1482      V1484   1.925       .  S
O1482      C1485   1.271       .  A
V1483      V1484   2.080       .  T
C1485      C1944   1.524       .  S
C1486      C1930   1.529       .  S
C1488      C1611   1.478       .  S
N1489      C1494   1.353       .  A
N1489      C1493   1.352       .  A
N1489      H1521   1.041   1_565  S
N1490      C1497   1.352       .  A
N1490      C1498   1.352       .  A
N1491      C1496   1.355       .  A
N1491      C1495   1.346       .  A
N1491      H1522   1.040       .  S
N1492      C1499   1.343       .  A
N1492      C1500   1.347       .  A
C1493      C1501   1.385       .  A
C1494      C3718   1.415       .  A
C1494      C1502   1.390       .  A
C1495      C1503   1.385       .  A
C1495      C1512   1.406       .  A
C1496      C1511   1.417       .  A
C1496      C1504   1.387       .  A
C1497      C1509   1.409   1_655  A
C1497      C1505   1.385       .  A
C1498      C3720   1.414       .  A
C1498      C1506   1.388       .  A
C1499      C1507   1.387       .  A
C1499      C1510   1.404       .  A
C1500      C1508   1.387       .  A
C1501      C1502   1.375       .  A
C1501      H1513   1.083       .  S
C1502      H1514   1.082       .  S
C1503      C1504   1.380       .  A
C1503      H1515   1.082       .  S
C1504      H1516   1.082       .  S
C1505      C1506   1.374       .  A
C1505      H1517   1.083       .  S
C1506      H1518   1.082       .  S
C1507      C1508   1.377       .  A
C1507      H1519   1.083       .  S
C1508      H1520   1.082       .  S
C1510      C3702   1.418       .  A
C1510      C1891   1.477       .  S
C1512      C3706   1.415       .  A
C1512      C1905   1.477       .  S
N1523      C1528   1.352       .  A
N1523      C1527   1.355   1_655  A
N1523      H1555   1.040       .  S
N1524      C1531   1.355       .  A
N1524      C1532   1.353       .  A
N1525      C1530   1.353       .  A
N1525      C1529   1.346       .  A
N1525      H1556   1.039       .  S
N1526      C1533   1.344       .  A
N1526      C1534   1.350       .  A
C1527      C1535   1.384   1_455  A
C1527      C1543   1.411       .  A
C1528      C3752   1.419       .  A
C1528      C1536   1.391       .  A
C1529      C1537   1.385       .  A
C1529      C1546   1.405       .  A
C1530      C1545   1.414       .  A
C1530      C1538   1.388       .  A
C1531      C1543   1.411       .  A
C1531      C1539   1.383       .  A
C1532      C3754   1.417       .  A
C1532      C1540   1.389       .  A
C1533      C1541   1.387       .  A
C1533      C1544   1.407       .  A
C1534      C1542   1.386       .  A
C1534      C1545   1.412       .  A
C1535      C1536   1.374       .  A
C1535      H1547   1.083   1_655  S
C1536      H1548   1.082       .  S
C1537      C1538   1.376       .  A
C1537      H1549   1.082       .  S
C1538      H1550   1.082       .  S
C1539      C1540   1.373       .  A
C1539      H1551   1.083       .  S
C1540      H1552   1.081       .  S
C1541      C1542   1.377       .  A
C1541      H1553   1.082       .  S
C1542      H1554   1.082       .  S
C1544      C3736   1.422       .  A
C1544      C1902   1.481       .  S
C1545      C1874   1.491       .  S
C1546      C3740   1.412       .  A
C1546      C1888   1.474       .  S
N1557      C1562   1.352       .  A
N1557      C1561   1.353       .  A
N1557      H1589   1.041       .  S
N1558      C1565   1.353       .  A
N1558      C1566   1.351       .  A
N1559      C1564   1.354       .  A
N1559      C1563   1.346       .  A
N1559      H1590   1.039       .  S
N1560      C1567   1.341       .  A
N1560      C1568   1.347       .  A
C1561      C1569   1.382       .  A
C1562      C1578   1.419       .  A
C1562      C1570   1.392       .  A
C1563      C1571   1.386       .  A
C1563      C1580   1.407       .  A
C1564      C1579   1.418       .  A
C1564      C1572   1.387       .  A
C1565      C1577   1.407       .  A
C1565      C1573   1.384       .  A
C1566      C1580   1.415       .  A
C1566      C1574   1.389       .  A
C1567      C1575   1.387       .  A
C1567      C1578   1.403       .  A
C1568      C1576   1.387       .  A
C1569      C1570   1.376       .  A
C1569      H1581   1.083       .  S
C1570      H1582   1.081       .  S
C1571      C1572   1.379       .  A
C1571      H1583   1.083       .  S
C1572      H1584   1.082       .  S
C1573      C1574   1.372       .  A
C1573      H1585   1.083       .  S
C1574      H1586   1.081       .  S
C1575      C1576   1.377       .  A
C1575      H1587   1.082       .  S
C1576      H1588   1.082       .  S
C1578      C1835   1.477       .  S
C1579      C1860   1.491       .  S
C1580      C1846   1.476       .  S
N1591      C1596   1.351       .  A
N1591      C1595   1.355       .  A
N1591      H1623   1.039       .  S
N1592      C1599   1.351       .  A
N1592      C1600   1.349       .  A
N1593      C1598   1.353       .  A
N1593      C1597   1.347       .  A
N1593      H1624   1.040       .  S
N1594      C1601   1.345       .  A
N1594      C1602   1.351       .  A
C1595      C1603   1.385       .  A
C1595      C1611   1.410       .  A
C1596      C1612   1.416       .  A
C1596      C1604   1.390       .  A
C1597      C1605   1.385       .  A
C1597      C1614   1.406       .  A
C1598      C1613   1.415       .  A
C1598      C1606   1.388       .  A
C1599      C1611   1.405       .  A
C1599      C1607   1.383       .  A
C1600      C1614   1.412       .  A
C1600      C1608   1.389       .  A
C1601      C1609   1.386       .  A
C1601      C1612   1.407       .  A
C1602      C1610   1.386       .  A
C1602      C1613   1.414       .  A
C1603      C1604   1.376       .  A
C1603      H1615   1.083       .  S
C1604      H1616   1.082       .  S
C1605      C1606   1.378       .  A
C1605      H1617   1.082       .  S
C1606      H1618   1.082       .  S
C1607      C1608   1.372       .  A
C1607      H1619   1.083       .  S
C1608      H1620   1.081       .  S
C1609      C1610   1.376       .  A
C1609      H1621   1.082       .  S
C1610      H1622   1.082       .  S
C1612      C1849   1.473       .  S
C1613      C1818   1.498       .  S
C1614      C1832   1.477       .  S
N1625      C1630   1.356       .  A
N1625      C1629   1.346       .  A
N1625      H1657   1.038       .  S
N1626      C1633   1.347       .  A
N1626      C1634   1.352       .  A
N1627      C1632   1.348       .  A
N1627      C1631   1.355       .  A
N1627      H1658   1.041       .  S
N1628      C1635   1.351       .  A
N1628      C1636   1.342       .  A
C1629      C1637   1.383       .  A
C1629      C1645   1.405       .  A
C1630      C3854   1.426   1_545  A
C1630      C1638   1.393       .  A
C1631      C1639   1.382       .  A
C1631      C1648   1.406   1_565  A
C1632      C1647   1.416       .  A
C1632      C1640   1.393       .  A
C1633      C1645   1.412       .  A
C1633      C1641   1.390       .  A
C1634      C3856   1.404       .  A
C1634      C1642   1.382       .  A
C1635      C1643   1.388       .  A
C1635      C1646   1.418       .  A
C1636      C1644   1.387       .  A
C1636      C1647   1.407       .  A
C1637      C1638   1.372       .  A
C1637      H1649   1.083       .  S
C1638      H1650   1.079       .  S
C1639      C1640   1.373       .  A
C1640      H1652   1.082       .  S
C1641      C1642   1.372       .  A
C1641      H1653   1.081       .  S
C1643      C1644   1.375       .  A
C1643      H1655   1.081       .  S
C1644      H1656   1.083       .  S
C1645      C1804   1.467       .  S
C1646      C3838   1.421   1_565  A
C1647      C1793   1.462       .  S
C1648      C3842   1.403       .  A
C1648      C1916   1.489       .  S
N1659      C1664   1.357       .  A
N1659      C1663   1.342       .  A
N1659      H1691   1.040       .  S
N1660      C1667   1.348       .  A
N1660      C1668   1.356       .  A
N1661      C1666   1.347       .  A
N1661      C1665   1.351       .  A
N1661      H1692   1.043       .  S
N1662      C1669   1.349       .  A
N1662      C1670   1.343       .  A
C1663      C1671   1.385       .  A
C1663      C1679   1.403       .  A
C1664      C3888   1.419   1_455  A
C1664      C1672   1.390       .  A
C1665      C1673   1.383       .  A
C1665      C1682   1.403       .  A
C1666      C1681   1.410       .  A
C1666      C1674   1.391       .  A
C1667      C1679   1.416       .  A
C1667      C1675   1.390       .  A
C1668      C3890   1.411       .  A
C1668      C1676   1.382       .  A
C1669      C1677   1.388       .  A
C1669      C1680   1.413       .  A
C1670      C1678   1.385       .  A
C1670      C1681   1.403       .  A
C1671      C1672   1.377       .  A
C1671      H1683   1.083       .  S
C1672      H1684   1.079       .  S
C1673      C1674   1.373       .  A
C1673      H1685   1.082       .  S
C1674      H1686   1.082       .  S
C1675      C1676   1.374       .  A
C1675      H1687   1.081       .  S
C1676      H1688   1.082       .  S
C1677      C1678   1.375       .  A
C1677      H1689   1.081       .  S
C1678      H1690   1.083       .  S
C1679      C1776   1.464       .  S
C1680      C3872   1.417       .  A
C1681      C1762   1.466       .  S
C1682      C3876   1.404       .  A
C1682      C1877   1.486       .  S
N1693      C1698   1.344       .  A
N1693      C1697   1.356       .  A
N1693      H1725   1.038   1_545  S
N1694      C1701   1.350       .  A
N1694      C1702   1.342       .  A
N1695      C1699   1.349       .  A
N1695      H1726   1.041       .  S
N1696      C1703   1.347       .  A
C1697      C1705   1.392       .  A
C1697      C1713   1.422   1_545  A
C1698      C1714   1.401       .  A
C1698      C1706   1.383       .  A
C1699      C1716   1.414       .  A
C1700      C1715   1.407       .  A
C1700      C1708   1.382       .  A
C1701      C1713   1.418       .  A
C1701      C1709   1.389       .  A
C1702      C1716   1.404       .  A
C1702      C1710   1.386       .  A
C1703      C1714   1.412       .  A
C1704      C1712   1.382       .  A
C1704      C1715   1.402       .  A
C1705      C1706   1.372       .  A
C1705      H1717   1.078       .  S
C1706      H1718   1.083       .  S
C1707      C1708   1.378       .  A
C1707      H1719   1.082       .  S
C1708      H1720   1.082       .  S
C1709      C1710   1.372       .  A
C1709      H1721   1.080       .  S
C1710      H1722   1.083       .  S
C1711      C1712   1.373       .  A
C1711      H1723   1.081       .  S
C1712      H1724   1.082       .  S
C1714      C1807   1.463       .  S
C1715      C1863   1.490       .  S
C1716      C1790   1.465       .  S
N1727      C1732   1.345       .  A
N1727      C1731   1.356       .  A
N1727      H1759   1.041       .  S
N1728      C1735   1.349       .  A
N1728      C1736   1.341       .  A
N1729      C1734   1.354       .  A
N1729      C1733   1.349       .  A
N1729      H1760   1.043       .  S
N1730      C1737   1.347       .  A
N1730      C1738   1.351       .  A
C1731      C1739   1.393       .  A
C1731      C1747   1.427       .  A
C1732      C1748   1.402       .  A
C1732      C1740   1.382       .  A
C1733      C1741   1.392       .  A
C1733      C1750   1.415       .  A
C1734      C1749   1.404       .  A
C1734      C1742   1.381       .  A
C1735      C1747   1.419       .  A
C1735      C1743   1.391       .  A
C1736      C1750   1.403       .  A
C1736      C1744   1.386       .  A
C1737      C1745   1.391       .  A
C1737      C1748   1.412       .  A
C1738      C1746   1.381       .  A
C1738      C1749   1.402       .  A
C1739      C1740   1.376       .  A
C1739      H1751   1.078       .  S
C1740      H1752   1.083       .  S
C1741      C1742   1.376       .  A
C1741      H1753   1.082       .  S
C1742      H1754   1.082       .  S
C1743      C1744   1.374       .  A
C1743      H1755   1.079       .  S
C1744      H1756   1.083       .  S
C1745      C1746   1.374       .  A
C1745      H1757   1.080       .  S
C1746      H1758   1.082       .  S
C1748      C1779   1.470       .  S
C1749      C1821   1.488       .  S
C1750      C1765   1.467       .  S
C1761      C1762   1.397       .  A
C1761      C1766   1.382       .  A
C1761      H1768   1.085       .  S
C1762      C1763   1.409       .  A
C1763      C1764   1.396       .  A
C1763      N1770   1.431       .  S
C1764      C1765   1.402       .  A
C1764      H1769   1.084       .  S
C1765      C1766   1.413       .  A
C1766      N1767   1.434       .  S
N1767      H1771   1.046       .  S
N1767      H1772   1.043       .  S
N1770      H1773   1.045       .  S
N1770      H1774   1.044       .  S
C1775      C1776   1.401       .  A
C1775      C1780   1.396       .  A
C1775      H1782   1.084       .  S
C1776      C1777   1.410       .  A
C1777      C1778   1.381       .  A
C1777      N1784   1.434       .  S
C1778      C1779   1.401       .  A
C1778      H1783   1.085       .  S
C1779      C1780   1.408       .  A
C1780      N1781   1.428       .  S
N1781      H1785   1.043       .  S
N1781      H1786   1.046       .  S
N1784      H1787   1.045       .  S
N1784      H1788   1.044       .  S
C1789      C1794   1.386       .  A
C1789      H1796   1.085       .  S
C1790      C1791   1.407       .  A
C1791      C1792   1.397       .  A
C1791      N1798   1.431       .  S
C1792      C1793   1.402       .  A
C1792      H1797   1.083       .  S
C1794      N1795   1.434       .  S
N1795      H1799   1.046       .  S
N1795      H1800   1.046       .  S
N1798      H1801   1.045       .  S
N1798      H1802   1.045       .  S
C1803      C1808   1.405       .  A
C1803      H1810   1.083       .  S
C1804      C1805   1.411       .  A
C1805      C1806   1.386       .  A
C1805      N1812   1.440       .  S
C1806      C1807   1.396       .  A
C1806      H1811   1.085       .  S
C1808      N1809   1.436       .  S
N1809      H1813   1.045       .  S
N1809      H1814   1.045       .  S
N1812      H1815   1.046   1_545  S
N1812      H1816   1.046   1_545  S
C1817      C1818   1.405       .  A
C1817      C1822   1.403       .  A
C1817      H1824   1.084       .  S
C1818      C1819   1.413       .  A
C1819      C1820   1.406       .  A
C1819      N1826   1.438       .  S
C1820      C1821   1.403       .  A
C1820      H1825   1.084       .  S
C1821      C1822   1.417       .  A
C1822      N1823   1.439       .  S
N1823      H1827   1.045       .  S
N1823      H1828   1.043       .  S
N1826      H1829   1.045       .  S
N1826      H1830   1.046       .  S
C1831      C1832   1.400       .  A
C1831      C1836   1.394       .  A
C1831      H1838   1.084       .  S
C1832      C1833   1.406       .  A
C1833      C1834   1.402       .  A
C1833      N1840   1.432       .  S
C1834      C1835   1.403       .  A
C1834      H1839   1.084       .  S
C1835      C1836   1.412       .  A
C1836      N1837   1.440       .  S
N1837      H1841   1.046       .  S
N1837      H1842   1.044       .  S
N1840      H1843   1.046       .  S
N1840      H1844   1.045       .  S
C1845      C1846   1.400       .  A
C1845      C1850   1.385       .  A
C1845      H1852   1.085       .  S
C1846      C1847   1.414       .  A
C1847      C1848   1.404       .  A
C1847      N1854   1.437       .  S
C1848      C1849   1.404       .  A
C1848      H1853   1.084       .  S
C1849      C1850   1.414       .  A
C1850      N1851   1.441       .  S
N1851      H1855   1.047       .  S
N1851      H1856   1.040       .  S
N1854      H1857   1.044       .  S
N1854      H1858   1.046       .  S
C1859      C1864   1.399       .  A
C1859      H1866   1.084       .  S
C1860      C1861   1.410       .  A
C1861      C1862   1.408       .  A
C1861      N1868   1.438       .  S
C1862      C1863   1.405       .  A
C1862      H1867   1.084       .  S
C1864      N1865   1.439       .  S
N1865      H1869   1.046       .  S
N1865      H1870   1.042       .  S
N1868      H1871   1.045       .  S
N1868      H1872   1.045       .  S
C1873      C1874   1.403       .  A
C1873      C1878   1.397       .  A
C1873      H1880   1.084       .  S
C1874      C4083   1.412       .  A
C1875      C4082   1.409       .  A
C1875      C1876   1.407       .  A
C1875      N1882   1.432       .  S
C1876      C4085   1.407       .  A
C1876      H1881   1.083       .  S
C1877      C4084   1.403       .  A
C1877      C1878   1.414       .  A
C1878      N1879   1.433       .  S
N1879      H1883   1.044       .  S
N1879      H1884   1.045       .  S
N1882      H1885   1.045       .  S
N1882      H1886   1.046       .  S
C1887      C4096   1.406       .  A
C1887      C1892   1.404       .  A
C1887      H1894   1.083       .  S
C1888      C4095   1.403       .  A
C1888      C1889   1.404       .  A
C1889      C1890   1.389       .  A
C1889      N1896   1.434       .  S
C1890      C1891   1.402       .  A
C1890      H1895   1.085       .  S
C1891      C4100   1.415       .  A
C1892      C4099   1.412       .  A
C1892      N1893   1.432       .  S
N1893      H1897   1.045       .  S
N1893      H1898   1.045       .  S
N1896      H1899   1.045       .  S
N1896      H1900   1.046       .  S
C1901      C1902   1.406       .  A
C1901      C1906   1.404       .  A
C1901      H1908   1.083       .  S
C1902      C4111   1.413       .  A
C1903      C4110   1.411       .  A
C1903      C1904   1.386       .  A
C1903      N1910   1.434   1_655  S
C1904      C4113   1.399       .  A
C1904      H1909   1.085   1_655  S
C1905      C4112   1.399       .  A
C1905      C1906   1.411       .  A
C1906      N1907   1.432       .  S
N1907      H1911   1.044       .  S
N1907      H1912   1.046       .  S
N1910      H1913   1.046       .  S
N1910      H1914   1.044       .  S
C1915      C1916   1.404   1_565  A
C1915      C1920   1.398       .  A
C1915      H1922   1.084       .  S
C1916      C3021   1.414       .  A
C1917      C3020   1.418       .  A
C1917      C1918   1.400       .  A
C1917      N1924   1.433       .  S
C1918      C3023   1.403       .  A
C1918      H1923   1.084       .  S
C1919      C3022   1.404       .  A
C1919      C1920   1.414   1_545  A
C1920      N1921   1.434       .  S
N1921      H1925   1.043       .  S
N1921      H1926   1.045       .  S
N1924      H1927   1.046   1_455  S
N1924      H1928   1.042       .  S
C1929      C1930   1.414       .  A
C1929      C1934   1.424       .  A
C1929      H1936   1.083       .  S
C1930      C1931   1.423       .  A
C1931      C1932   1.421       .  A
C1931      N1938   1.437       .  S
C1932      C1933   1.410       .  A
C1932      H1937   1.083       .  S
C1933      C1934   1.419       .  A
C1934      N1935   1.432       .  S
N1935      H1939   1.045       .  S
N1935      H1940   1.046       .  S
N1938      H1941   1.046       .  S
N1938      H1942   1.045       .  S
C1943      C1944   1.411       .  A
C1943      C1948   1.422       .  A
C1943      H1950   1.083       .  S
C1944      C1945   1.420       .  A
C1945      C1946   1.423       .  A
C1945      N1952   1.437       .  S
C1946      C1947   1.413       .  A
C1946      H1951   1.083       .  S
C1947      C1948   1.420       .  A
C1948      N1949   1.437       .  S
N1949      H1953   1.046       .  S
N1949      H1954   1.046       .  S
N1952      H1955   1.046   1_554  S
N1952      H1956   1.046       .  S
C1957      C1958   1.412   1_655  A
C1957      C1962   1.420       .  A
C1957      H4172   1.083       .  S
C1958      C1959   1.418       .  A
C1959      C1960   1.423       .  A
C1959      N1966   1.431       .  S
C1960      C1961   1.413       .  A
C1960      H1965   1.083       .  S
C1961      C1962   1.418   1_455  A
C1962      N4171   1.431       .  S
N1963      C4170   1.431       .  S
N1963      H1967   1.046       .  S
N1963      H1968   1.045       .  S
H1964      C4165   1.083       .  S
N1966      H1969   1.046       .  S
N1966      H1970   1.046       .  S
C1971      C1972   1.412       .  A
C1971      C1976   1.423       .  A
C1971      H1978   1.083       .  S
C1972      C1973   1.420   1_455  A
C1973      C1974   1.423       .  A
C1973      N4188   1.431       .  S
C1974      C1975   1.412   1_655  A
C1974      H4187   1.083       .  S
C1975      C1976   1.421       .  A
C1976      N1977   1.432       .  S
N1977      H1981   1.046       .  S
N1977      H1982   1.046       .  S
H1979      C4182   1.083       .  S
N1980      C4181   1.432       .  S
N1980      H1983   1.046       .  S
N1980      H1984   1.045       .  S
C1985      C1986   1.415       .  A
C1985      C1990   1.427       .  A
C1985      H1992   1.083       .  S
C1986      C1987   1.420       .  A
C1987      C1988   1.423       .  A
C1987      N1994   1.431       .  S
C1988      C1989   1.413       .  A
C1988      H1993   1.083       .  S
C1989      C1990   1.421       .  A
C1990      N1991   1.431       .  S
N1991      H1995   1.046       .  S
N1991      H1996   1.045       .  S
N1994      H1997   1.046       .  S
N1994      H1998   1.046       .  S
C1999      C2000   1.415       .  A
C1999      C2004   1.429       .  A
C1999      H2006   1.083       .  S
C2000      C2001   1.422       .  A
C2001      C2002   1.425       .  A
C2001      N2008   1.437       .  S
C2002      C2003   1.413       .  A
C2002      H2007   1.083       .  S
C2003      C2004   1.423       .  A
C2004      N2005   1.437       .  S
N2005      H2009   1.045       .  S
N2005      H2010   1.046       .  S
N2008      H2011   1.045       .  S
N2008      H2012   1.046       .  S
C2013      C2014   1.413       .  A
C2013      C2018   1.421       .  A
C2013      H2020   1.083       .  S
C2015      C2016   1.423       .  A
C2015      N2022   1.437       .  S
C2016      H2021   1.083       .  S
C2017      C2018   1.417       .  A
C2018      N2019   1.431       .  S
N2019      H2023   1.046       .  S
N2019      H2024   1.046       .  S
N2022      H2025   1.045       .  S
N2022      H2026   1.046       .  S
C2027      C2032   1.426       .  A
C2027      H2034   1.083       .  S
C2028      C2029   1.421       .  A
C2029      C2030   1.423       .  A
C2029      N2036   1.431       .  S
C2030      C2031   1.411       .  A
C2030      H2035   1.083       .  S
C2032      N2033   1.431       .  S
N2033      H2037   1.045       .  S
N2033      H2038   1.046       .  S
N2036      H2039   1.045       .  S
N2036      H2040   1.046       .  S
C2041      C2042   1.405       .  A
C2041      C2046   1.406       .  A
C2041      H2048   1.081       .  S
C2042      C2043   1.407       .  A
C2043      C2044   1.387       .  A
C2043      N2050   1.434       .  S
C2044      C2045   1.398       .  A
C2044      H2049   1.085       .  S
C2045      C2046   1.405       .  A
C2046      N2047   1.431       .  S
N2047      H2051   1.044       .  S
N2047      H2052   1.045       .  S
N2050      H2053   1.046       .  S
N2050      H2054   1.045       .  S
C2055      C2056   1.402       .  A
C2055      C2060   1.405       .  A
C2055      H2062   1.084       .  S
C2056      C2057   1.403       .  A
C2057      C2058   1.386       .  A
C2057      N2064   1.434       .  S
C2058      C2059   1.399       .  A
C2058      H2063   1.085       .  S
C2059      C2060   1.408       .  A
C2060      N2061   1.435       .  S
N2061      H2065   1.046       .  S
N2061      H2066   1.044       .  S
N2064      H2067   1.045       .  S
N2064      H2068   1.046       .  S
C2069      C2070   1.397       .  A
C2069      C2074   1.391       .  A
C2069      H2076   1.084       .  S
C2071      C2072   1.403       .  A
C2071      N2078   1.432       .  S
C2072      C2073   1.406       .  A
C2072      H2077   1.082       .  S
C2074      N2075   1.440       .  S
N2075      H2079   1.046       .  S
N2075      H2080   1.045       .  S
N2078      H2081   1.045       .  S
N2078      H2082   1.045       .  S
C2083      C2084   1.397       .  A
C2083      C2088   1.387       .  A
C2083      H2090   1.085   1_545  S
C2085      C2086   1.404       .  A
C2085      N2092   1.437       .  S
C2086      C2087   1.403       .  A
C2086      H2091   1.083       .  S
C2088      N2089   1.434   1_545  S
N2089      H2093   1.045       .  S
N2089      H2094   1.046       .  S
N2092      H2095   1.043       .  S
N2092      H2096   1.046       .  S
C2097      C2098   1.401       .  A
C2097      C2102   1.401       .  A
C2097      H2104   1.084       .  S
C2098      C2099   1.416       .  A
C2099      C2100   1.402       .  A
C2099      N2106   1.439       .  S
C2100      C2101   1.403       .  A
C2100      H2105   1.084       .  S
C2101      C2102   1.417       .  A
C2102      N2103   1.439       .  S
N2103      H2107   1.046       .  S
N2103      H2108   1.042       .  S
N2106      H2109   1.043       .  S
N2106      H2110   1.046       .  S
C2111      C2112   1.404       .  A
C2111      C2116   1.404       .  A
C2111      H2118   1.084       .  S
C2112      C2113   1.411       .  A
C2113      C2114   1.385       .  A
C2113      N2120   1.434       .  S
C2114      C2115   1.401       .  A
C2114      H2119   1.085       .  S
C2115      C2116   1.415       .  A
C2116      N2117   1.438       .  S
N2117      H2121   1.045       .  S
N2117      H2122   1.044       .  S
N2120      H2123   1.046       .  S
N2120      H2124   1.044       .  S
C2125      C2126   1.396       .  A
C2125      C2130   1.389       .  A
C2125      H2132   1.085       .  S
C2126      C2127   1.406       .  A
C2127      C2128   1.406       .  A
C2127      N2134   1.436       .  S
C2128      C2129   1.405       .  A
C2128      H2133   1.083       .  S
C2129      C2130   1.413       .  A
C2130      N2131   1.440       .  S
N2131      H2135   1.046       .  S
N2131      H2136   1.045       .  S
N2134      H2137   1.046       .  S
N2134      H2138   1.045       .  S
C2139      C2140   1.402       .  A
C2139      C2144   1.402       .  A
C2139      H2146   1.084       .  S
C2141      C2142   1.402       .  A
C2141      N2148   1.432       .  S
C2142      H2147   1.084       .  S
C2143      C2144   1.414       .  A
C2144      N2145   1.432       .  S
N2145      H2149   1.044       .  S
N2145      H2150   1.046       .  S
N2148      H2151   1.045       .  S
N2148      H2152   1.046       .  S
C2153      C2154   1.404       .  A
C2153      C2158   1.407       .  A
C2153      H2160   1.084       .  S
C2154      C4363   1.411       .  A
C2155      C4362   1.412   1_455  A
C2155      C2156   1.399       .  A
C2155      N2162   1.432       .  S
C2156      C4365   1.402   1_455  A
C2156      H2161   1.084       .  S
C2157      C4364   1.402       .  A
C2157      C2158   1.408       .  A
C2158      N2159   1.432       .  S
N2159      H2163   1.046       .  S
N2159      H2164   1.045       .  S
N2162      H2165   1.046       .  S
N2162      H2166   1.045       .  S
C2167      C2168   1.407       .  A
C2167      C2172   1.409       .  A
C2167      H2174   1.083       .  S
C2168      C4377   1.406       .  A
C2169      C4376   1.406       .  A
C2169      C2170   1.385       .  A
C2169      N2176   1.434   1_655  S
C2170      C4379   1.399       .  A
C2170      H2175   1.085       .  S
C2171      C4378   1.399       .  A
C2171      C2172   1.407       .  A
C2172      N2173   1.436       .  S
N2173      H2177   1.046       .  S
N2173      H2178   1.044       .  S
N2176      H2179   1.046       .  S
N2176      H2180   1.045       .  S
C2181      C2182   1.398       .  A
C2181      C2186   1.383       .  A
C2181      H2188   1.085       .  S
C2182      C4391   1.415       .  A
C2183      C4390   1.411       .  A
C2183      C2184   1.402       .  A
C2183      N2190   1.432       .  S
C2184      C4393   1.405       .  A
C2184      H2189   1.083       .  S
C2185      C4392   1.403       .  A
C2185      C2186   1.411       .  A
C2185      C3334   1.474       .  S
C2186      N2187   1.434       .  S
N2187      H2191   1.045       .  S
N2187      H2192   1.045       .  S
N2190      H2193   1.046       .  S
N2190      H2194   1.045       .  S
C2195      C4404   1.402       .  A
C2196      C4403   1.402       .  A
C2196      C2197   1.404       .  A
C2197      C2198   1.400       .  A
C2197      N2204   1.432       .  S
C2198      C2199   1.402       .  A
C2198      H2203   1.084       .  S
C2199      C3304   1.417       .  A
C2200      C3303   1.411   1_565  A
C2200      N2201   1.432       .  S
N2201      H2205   1.045       .  S
N2201      H2206   1.046       .  S
N2204      H2207   1.045       .  S
N2204      H2208   1.045       .  S
N2209      C2214   1.353       .  A
N2209      C2213   1.354       .  A
N2209      H2241   1.040       .  S
N2210      C2217   1.354       .  A
N2210      C2218   1.353       .  A
N2211      C2216   1.355       .  A
N2211      C2215   1.348       .  A
N2211      H2242   1.040   1_655  S
N2212      C2219   1.342       .  A
N2212      C2220   1.349       .  A
C2213      C2221   1.384       .  A
C2213      C3333   1.410       .  A
C2214      C2230   1.418       .  A
C2214      C2222   1.390       .  A
C2215      C2223   1.385       .  A
C2215      C2232   1.407       .  A
C2216      C3335   1.417   1_655  A
C2216      C2224   1.388       .  A
C2217      C2229   1.411       .  A
C2217      C2225   1.384       .  A
C2218      C2226   1.389       .  A
C2219      C2227   1.388       .  A
C2220      C2228   1.385       .  A
C2220      C2231   1.409       .  A
C2221      C2222   1.374       .  A
C2221      H2233   1.083       .  S
C2222      H2234   1.082       .  S
C2223      C2224   1.375       .  A
C2223      H2235   1.083       .  S
C2224      H2236   1.081       .  S
C2225      C2226   1.374       .  A
C2225      H2237   1.082       .  S
C2226      H2238   1.081       .  S
C2227      C2228   1.375       .  A
C2227      H2239   1.082       .  S
C2228      H2240   1.082       .  S
C2229      C3317   1.408       .  A
C2229      C3652   1.482       .  S
C2231      C3320   1.412   1_445  A
C2231      C3303   1.485       .  S
C2232      C3272   1.480       .  S
N2243      C2248   1.353       .  A
N2243      C2247   1.355       .  A
N2243      H2275   1.041       .  S
N2244      C2251   1.355       .  A
N2244      C2252   1.354       .  A
N2245      C2250   1.353       .  A
N2245      C2249   1.346       .  A
N2245      H2276   1.041   1_655  S
N2246      C2253   1.344       .  A
N2246      C2254   1.352       .  A
C2247      C2255   1.384       .  A
C2247      C2263   1.410       .  A
C2248      C2256   1.391       .  A
C2249      C2257   1.384       .  A
C2249      C2266   1.402       .  A
C2250      C2265   1.413   1_655  A
C2250      C2258   1.387       .  A
C2251      C2263   1.412       .  A
C2251      C2259   1.383       .  A
C2252      C2260   1.388       .  A
C2253      C2261   1.388       .  A
C2253      C2264   1.410       .  A
C2254      C2262   1.384       .  A
C2254      C2265   1.413       .  A
C2255      C2256   1.373       .  A
C2255      H2267   1.083       .  S
C2256      H2268   1.082       .  S
C2257      C2258   1.378       .  A
C2257      H2269   1.082       .  S
C2258      H2270   1.082       .  S
C2259      C2260   1.373       .  A
C2259      H2271   1.082       .  S
C2260      H2272   1.081       .  S
C2261      C2262   1.377       .  A
C2261      H2273   1.083       .  S
C2262      H2274   1.082       .  S
C2263      C2563   1.487       .  S
C2264      C3286   1.473       .  S
C2265      C3258   1.493       .  S
C2266      C3275   1.473       .  S
N2277      C2282   1.352       .  A
N2277      C2281   1.355       .  A
N2277      H2309   1.040       .  S
N2278      C2285   1.352       .  A
N2278      C2286   1.352       .  A
N2279      C2284   1.352       .  A
N2279      C2283   1.347       .  A
N2279      H2310   1.036       .  S
N2280      C2287   1.344       .  A
N2280      C2288   1.350       .  A
C2281      C2289   1.384       .  A
C2281      C2297   1.409       .  A
C2282      C2298   1.418       .  A
C2282      C2290   1.391       .  A
C2283      C2291   1.386       .  A
C2283      C2300   1.405       .  A
C2284      C3403   1.413       .  A
C2284      C2292   1.387       .  A
C2285      C3401   1.406       .  A
C2285      C2293   1.383       .  A
C2286      C2300   1.413       .  A
C2286      C2294   1.388       .  A
C2287      C2295   1.387       .  A
C2287      C2298   1.407       .  A
C2288      C2296   1.386       .  A
C2288      C2299   1.413       .  A
C2289      C2290   1.374       .  A
C2289      H2301   1.083       .  S
C2290      H2302   1.082       .  S
C2291      C2292   1.377       .  A
C2291      H2303   1.083       .  S
C2292      H2304   1.082       .  S
C2293      C2294   1.369       .  A
C2293      H2305   1.081       .  S
C2294      H2306   1.082       .  S
C2295      C2296   1.374       .  A
C2295      H2307   1.083       .  S
C2296      H2308   1.082       .  S
C2297      C3389   1.406       .  A
C2297      C3682   1.481       .  S
C2298      C3219   1.473       .  S
C2299      C3388   1.417       .  A
C2299      C3244   1.492       .  S
C2300      C3230   1.472       .  S
N2311      C2316   1.353       .  A
N2311      C2315   1.356       .  A
N2311      H2343   1.039       .  S
N2312      C2319   1.353       .  A
N2312      C2320   1.351       .  A
N2313      C2318   1.354       .  A
N2313      C2317   1.345       .  A
N2313      H2344   1.039       .  S
N2314      C2321   1.344       .  A
N2314      C2322   1.350       .  A
C2315      C2323   1.384       .  A
C2315      C2331   1.412       .  A
C2316      C2332   1.420       .  A
C2316      C2324   1.391       .  A
C2317      C2325   1.385       .  A
C2317      C2334   1.404       .  A
C2318      C2333   1.414       .  A
C2318      C2326   1.387       .  A
C2319      C2331   1.410       .  A
C2319      C2327   1.385       .  A
C2320      C2334   1.412       .  A
C2320      C2328   1.388       .  A
C2321      C2329   1.388       .  A
C2321      C2332   1.407       .  A
C2322      C2330   1.385       .  A
C2322      C2333   1.412       .  A
C2323      C2324   1.375       .  A
C2323      H2335   1.083       .  S
C2324      H2336   1.082       .  S
C2325      C2326   1.379       .  A
C2325      H2337   1.082       .  S
C2326      H2338   1.082       .  S
C2327      C2328   1.373       .  A
C2327      H2339   1.082       .  S
C2328      H2340   1.082       .  S
C2329      C2330   1.376       .  A
C2329      H2341   1.083       .  S
C2330      H2342   1.082       .  S
C2331      C2591   1.483       .  S
C2332      C3216   1.477       .  S
C2333      C3202   1.492       .  S
C2334      C3233   1.471       .  S
N2345      C2350   1.351       .  A
N2345      C2349   1.356       .  A
N2345      H2377   1.040       .  S
N2346      C2353   1.352       .  A
N2346      C2354   1.351       .  A
N2347      C2352   1.354       .  A
N2347      C2351   1.347       .  A
N2347      H2378   1.037       .  S
N2348      C2355   1.343       .  A
N2348      C2356   1.351       .  A
C2349      C2357   1.384       .  A
C2350      C2366   1.417       .  A
C2350      C2358   1.391       .  A
C2351      C2359   1.385       .  A
C2351      C2368   1.406       .  A
C2352      C2367   1.416   1_665  A
C2352      C2360   1.388       .  A
C2353      C2365   1.407   1_655  A
C2353      C2361   1.384       .  A
C2354      C2368   1.413       .  A
C2354      C2362   1.389       .  A
C2355      C2363   1.388       .  A
C2355      C2366   1.408       .  A
C2356      C2364   1.384       .  A
C2357      C2358   1.376       .  A
C2357      H2369   1.083       .  S
C2358      H2370   1.082       .  S
C2359      C2360   1.375       .  A
C2359      H2371   1.083       .  S
C2360      H2372   1.082       .  S
C2361      C2362   1.371       .  A
C2361      H2373   1.083       .  S
C2362      H2374   1.082       .  S
C2363      C2364   1.374       .  A
C2363      H2375   1.082       .  S
C2364      H2376   1.082       .  S
C2365      C3597   1.477       .  S
C2366      C3191   1.468       .  S
C2367      C3300   1.488       .  S
C2368      C3174   1.473       .  S
N2379      C2384   1.353       .  A
N2379      C2383   1.353       .  A
N2379      H2411   1.039       .  S
N2380      C2387   1.355       .  A
N2380      C2388   1.351       .  A
N2381      C2386   1.356       .  A
N2381      C2385   1.345       .  A
N2381      H2412   1.039       .  S
N2382      C2389   1.343       .  A
N2382      C2390   1.349       .  A
C2383      C2391   1.384       .  A
C2384      C2400   1.417       .  A
C2384      C2392   1.391       .  A
C2385      C2393   1.386       .  A
C2385      C2402   1.407       .  A
C2386      C2401   1.418       .  A
C2386      C2394   1.387       .  A
C2387      C2399   1.410       .  A
C2387      C2395   1.383       .  A
C2388      C2402   1.416       .  A
C2388      C2396   1.390       .  A
C2389      C2397   1.388       .  A
C2389      C2400   1.407       .  A
C2390      C2398   1.386       .  A
C2391      C2392   1.374       .  A
C2391      H2403   1.083       .  S
C2392      H2404   1.082       .  S
C2393      C2394   1.381       .  A
C2393      H2405   1.083       .  S
C2394      H2406   1.082       .  S
C2395      C2396   1.374       .  A
C2395      H2407   1.083       .  S
C2396      H2408   1.082       .  S
C2397      C2398   1.374       .  A
C2397      H2409   1.083       .  S
C2398      H2410   1.082       .  S
C2399      C2508   1.484       .  S
C2400      C3160   1.475       .  S
C2401      C3261   1.495       .  S
C2402      C3146   1.472       .  S
N2413      C2418   1.350       .  A
N2413      C2417   1.353       .  A
N2413      H2445   1.041       .  S
N2414      C2421   1.354       .  A
N2414      C2422   1.350       .  A
N2415      C2420   1.356       .  A
N2415      C2419   1.345       .  A
N2415      H2446   1.039       .  S
N2416      C2423   1.342       .  A
N2416      C2424   1.349       .  A
C2417      C2425   1.383       .  A
C2417      C2433   1.404       .  A
C2418      C2434   1.414       .  A
C2418      C2426   1.391       .  A
C2419      C2427   1.387       .  A
C2419      C2436   1.409       .  A
C2420      C2435   1.416       .  A
C2420      C2428   1.386       .  A
C2421      C2433   1.407       .  A
C2421      C2429   1.383       .  A
C2422      C2436   1.416       .  A
C2422      C2430   1.391       .  A
C2423      C2431   1.388       .  A
C2423      C2434   1.405       .  A
C2424      C2432   1.384       .  A
C2424      C2435   1.408       .  A
C2425      C2426   1.371       .  A
C2425      H2437   1.083       .  S
C2426      H2438   1.082       .  S
C2427      C2428   1.380       .  A
C2427      H2439   1.083       .  S
C2428      H2440   1.082       .  S
C2429      C2430   1.374       .  A
C2429      H2441   1.083       .  S
C2430      H2442   1.081       .  S
C2431      C2432   1.374       .  A
C2431      H2443   1.083       .  S
C2432      H2444   1.082       .  S
C2433      C2522   1.478       .  S
C2434      C3188   1.469       .  S
C2435      C3247   1.492       .  S
C2436      C3177   1.474       .  S
N2447      C2452   1.352       .  A
N2447      C2451   1.355       .  A
N2447      H2479   1.041       .  S
N2448      C2455   1.353       .  A
N2448      C2456   1.349       .  A
N2449      C2454   1.355       .  A
N2449      C2453   1.346       .  A
N2449      H2480   1.038       .  S
N2450      C2457   1.343       .  A
N2450      C2458   1.350       .  A
C2451      C2459   1.382       .  A
C2451      C2467   1.405       .  A
C2452      C2468   1.417       .  A
C2452      C2460   1.392       .  A
C2453      C2461   1.387       .  A
C2453      C2470   1.407       .  A
C2454      C2469   1.414       .  A
C2454      C2462   1.386       .  A
C2455      C2467   1.406       .  A
C2455      C2463   1.383       .  A
C2456      C2470   1.414       .  A
C2456      C2464   1.390       .  A
C2457      C2465   1.388       .  A
C2457      C2468   1.408       .  A
C2458      C2466   1.385       .  A
C2458      C2469   1.410       .  A
C2459      C2460   1.372       .  A
C2459      H2471   1.083       .  S
C2460      H2472   1.082       .  S
C2461      C2462   1.377       .  A
C2461      H2473   1.083       .  S
C2462      H2474   1.082       .  S
C2463      C2464   1.374       .  A
C2463      H2475   1.083       .  S
C2464      H2476   1.082       .  S
C2465      C2466   1.376       .  A
C2465      H2477   1.083       .  S
C2466      H2478   1.082       .  S
C2467      C2535   1.480       .  S
C2468      C3163   1.473       .  S
C2469      C3205   1.491       .  S
C2470      C3149   1.470       .  S
O2481      V2489   1.933   1_655  S
O2481      C3595   1.273   1_545  A
O2482      C3596   1.274   1_545  A
O2483      V2489   1.894       .  S
O2483      C3597   1.262   1_545  A
O2484      V2489   1.890       .  S
O2484      C3598   1.261   1_545  A
O2485      V2490   1.904       .  S
O2485      C2494   1.265       .  A
O2486      V2490   1.902       .  S
O2486      C2493   1.265       .  A
O2487      C2492   1.273       .  A
O2488      V2490   1.930   1_655  S
O2488      C2491   1.271       .  A
V2489      V3594   2.080   1_545  T
V2490      V3593   2.080       .  T
C2491      C3118   1.533       .  S
C2491      O3585   1.275       .  A
C2492      C3132   1.534       .  S
C2492      O3586   1.274       .  A
C2493      C3469   1.476       .  S
C2493      O3587   1.262       .  A
C2494      C2750   1.491       .  S
C2494      O3588   1.263       .  A
O2495      V2503   1.929       .  S
O2495      C2505   1.271       .  A
O2496      C2506   1.272       .  A
O2497      V2503   1.909       .  S
O2497      C2507   1.266       .  A
O2498      V2503   1.907       .  S
O2498      C2508   1.266       .  A
O2499      V2504   1.901       .  S
O2499      C2508   1.263       .  A
O2500      V2504   1.899       .  S
O2500      C2507   1.263       .  A
O2501      C2506   1.275       .  A
O2502      V2504   1.933       .  S
O2502      C2505   1.273       .  A
V2503      V2504   2.079       .  T
C2505      C3090   1.527       .  S
C2506      C3104   1.535       .  S
C2507      C2784   1.496       .  S
O2509      V2517   1.934       .  S
O2509      C3623   1.273   1_545  A
O2510      V2517   1.936       .  S
O2510      C3624   1.273   1_545  A
O2511      V2517   1.901       .  S
O2511      C3625   1.264   1_545  A
O2512      V2517   1.901       .  S
O2512      C3626   1.264   1_545  A
O2513      V2518   1.901       .  S
O2513      C2522   1.263       .  A
O2514      V2518   1.899       .  S
O2514      C2521   1.264       .  A
O2515      V2518   1.942       .  S
O2515      C2520   1.276       .  A
O2516      V2518   1.940       .  S
O2516      C2519   1.275       .  A
V2517      V3622   2.081   1_545  T
V2518      V3621   2.080       .  T
C2519      C3121   1.531       .  S
C2519      O3613   1.271       .  A
C2520      C3135   1.534       .  S
C2520      O3614   1.271       .  A
C2521      C2817   1.489       .  S
C2521      O3615   1.265       .  A
C2522      O3616   1.265       .  A
O2523      V2531   1.934       .  S
O2523      C2533   1.273       .  A
O2524      V2531   1.938       .  S
O2524      C2534   1.274       .  A
O2525      V2531   1.902       .  S
O2525      C2535   1.264       .  A
O2526      V2531   1.900       .  S
O2526      C2536   1.264       .  A
O2527      V2532   1.899       .  S
O2527      C2536   1.264       .  A
O2528      V2532   1.903       .  S
O2528      C2535   1.264       .  A
O2529      V2532   1.934       .  S
O2529      C2534   1.273       .  A
O2530      V2532   1.931       .  S
O2530      C2533   1.272       .  A
V2531      V2532   2.079       .  T
C2533      C3093   1.529       .  S
C2534      C3107   1.535       .  S
C2536      C2851   1.491       .  S
O2537      V2545   1.894       .  S
O2537      C2547   1.261   1_554  A
O2538      V2545   1.894       .  S
O2538      C2548   1.262       .  A
O2539      V3649   1.932       .  S
O2539      C2549   1.273       .  A
O2540      V2545   1.938       .  S
O2540      C2550   1.274       .  A
O2541      V2546   1.924       .  S
O2541      C2550   1.270       .  A
O2542      V3650   1.921       .  S
O2542      C2549   1.270       .  A
O2543      V2546   1.905       .  S
O2543      C2548   1.266       .  A
O2544      V2546   1.901   1_556  S
O2544      C2547   1.265       .  A
V2545      O3643   1.936   1_545  S
V2545      V2546   2.081       .  T
V2546      O3646   1.928   1_545  S
C2547      C2613   1.474       .  S
C2548      C3333   1.479       .  S
C2549      C3062   1.520       .  S
C2550      C3076   1.527       .  S
O2551      C2561   1.273       .  A
O2552      C2562   1.273       .  A
O2553      C2563   1.263       .  A
O2554      C2564   1.263       .  A
O2555      V2560   1.909       .  S
O2555      C2564   1.266   1_554  A
O2556      V2560   1.910       .  S
O2556      C2563   1.267       .  A
O2557      V2560   1.925       .  S
O2557      C2562   1.270       .  A
O2558      V2560   1.925       .  S
O2558      C2561   1.270       .  A
C2561      C3065   1.521       .  S
C2562      C3079   1.523       .  S
C2564      C2647   1.482       .  S
O2565      V2573   1.932   1_545  S
O2565      C2575   1.273       .  A
O2566      V3677   1.925       .  S
O2566      C2576   1.271       .  A
O2567      V2573   1.899   1_556  S
O2567      C2577   1.264   1_565  A
O2568      V2573   1.899       .  S
O2568      C2578   1.263       .  A
O2569      V2574   1.895   1_565  S
O2569      C2578   1.263       .  A
O2570      V2574   1.901   1_556  S
O2570      C2577   1.263       .  A
O2571      V3678   1.933       .  S
O2571      C2576   1.272       .  A
O2572      V2574   1.925       .  S
O2572      C2575   1.271       .  A
V2573      O3670   1.925       .  S
V2573      V2574   2.083   1_565  T
V2574      O3675   1.932   1_545  S
C2575      C3051   1.525       .  S
C2576      C3037   1.524       .  S
C2577      C2681   1.478       .  S
C2578      C3401   1.474   1_565  S
O2579      V2587   1.931       .  S
O2579      C2589   1.272       .  A
O2580      V2587   1.926       .  S
O2580      C2590   1.271       .  A
O2581      V2587   1.906       .  S
O2581      C2591   1.265       .  A
O2582      V2587   1.906   1_556  S
O2582      C2592   1.265       .  A
O2583      V2588   1.899   1_556  S
O2583      C2592   1.263       .  A
O2584      V2588   1.900       .  S
O2584      C2591   1.264       .  A
O2585      V2588   1.932       .  S
O2585      C2590   1.272       .  A
O2586      V2588   1.923       .  S
O2586      C2589   1.271       .  A
V2587      V2588   2.083       .  T
C2589      C3048   1.524       .  S
C2590      C3034   1.524       .  S
C2592      C2715   1.479       .  S
N2593      C2598   1.354       .  A
N2593      C2597   1.354       .  A
N2593      H2625   1.041       .  S
N2594      C2601   1.350       .  A
N2594      C2602   1.350       .  A
N2595      C2600   1.356       .  A
N2595      C2599   1.348       .  A
N2595      H2626   1.039   1_655  S
N2596      C2603   1.344       .  A
N2596      C2604   1.349       .  A
C2597      C2605   1.385       .  A
C2597      C3717   1.412       .  A
C2598      C2606   1.390       .  A
C2599      C2607   1.386       .  A
C2599      C2616   1.411       .  A
C2600      C2615   1.419   1_655  A
C2600      C2608   1.387       .  A
C2601      C2613   1.403       .  A
C2601      C2609   1.385       .  A
C2602      C2610   1.388       .  A
C2603      C2611   1.387       .  A
C2603      C2614   1.406       .  A
C2604      C2612   1.386       .  A
C2604      C3719   1.414       .  A
C2605      C2606   1.376       .  A
C2605      H2617   1.083       .  S
C2606      H2618   1.081       .  S
C2607      C2608   1.381       .  A
C2607      H2619   1.083       .  S
C2608      H2620   1.082       .  S
C2609      C2610   1.370       .  A
C2609      H2621   1.083       .  S
C2610      H2622   1.082       .  S
C2611      C2612   1.377       .  A
C2611      H2623   1.083       .  S
C2612      H2624   1.082       .  S
C2613      C3701   1.409   1_545  A
C2614      C2995   1.477       .  S
C2615      C3708   1.411       .  A
C2615      C4127   1.495       .  S
C2616      C3009   1.481       .  S
N2627      C2632   1.352       .  A
N2627      C2631   1.353       .  A
N2627      H2659   1.042       .  S
N2628      C2635   1.353       .  A
N2628      C2636   1.351       .  A
N2629      C2634   1.353       .  A
N2629      C2633   1.348       .  A
N2629      H2660   1.038       .  S
N2630      C2637   1.344       .  A
N2630      C2638   1.347       .  A
C2631      C2639   1.385       .  A
C2631      C2647   1.411       .  A
C2632      C2640   1.389       .  A
C2633      C2641   1.385       .  A
C2633      C2650   1.406       .  A
C2634      C2649   1.416   1_455  A
C2634      C2642   1.388       .  A
C2635      C2647   1.408       .  A
C2635      C2643   1.383       .  A
C2636      C2644   1.389       .  A
C2637      C2645   1.386       .  A
C2637      C2648   1.404       .  A
C2638      C2646   1.387       .  A
C2638      C2649   1.412       .  A
C2639      C2640   1.377       .  A
C2639      H2651   1.083       .  S
C2640      H2652   1.082       .  S
C2641      C2642   1.378       .  A
C2641      H2653   1.082       .  S
C2642      H2654   1.082       .  S
C2643      C2644   1.373       .  A
C2643      H2655   1.083       .  S
C2644      H2656   1.081       .  S
C2645      C2646   1.377       .  A
C2645      H2657   1.082       .  S
C2646      H2658   1.082       .  S
C2648      C3006   1.481       .  S
C2649      C2978   1.489       .  S
C2650      C2992   1.476       .  S
N2661      C2666   1.352       .  A
N2661      C2665   1.354       .  A
N2661      H2693   1.042       .  S
N2662      C2669   1.352       .  A
N2662      C2670   1.350       .  A
N2663      C2668   1.355       .  A
N2663      C2667   1.346       .  A
N2663      H2694   1.041       .  S
N2664      C2671   1.344       .  A
N2664      C2672   1.348       .  A
C2665      C2673   1.385       .  A
C2665      C3785   1.409       .  A
C2666      C2682   1.417       .  A
C2666      C2674   1.390       .  A
C2667      C2675   1.385       .  A
C2667      C2684   1.404       .  A
C2668      C2683   1.415       .  A
C2668      C2676   1.387       .  A
C2669      C2681   1.406       .  A
C2669      C2677   1.384       .  A
C2670      C2684   1.412       .  A
C2670      C2678   1.389       .  A
C2671      C2679   1.387       .  A
C2671      C2682   1.404       .  A
C2672      C2680   1.386       .  A
C2672      C3787   1.411       .  A
C2673      C2674   1.377       .  A
C2673      H2685   1.083       .  S
C2674      H2686   1.082       .  S
C2675      C2676   1.378       .  A
C2675      H2687   1.082       .  S
C2676      H2688   1.082       .  S
C2677      C2678   1.373       .  A
C2677      H2689   1.083       .  S
C2678      H2690   1.082       .  S
C2679      C2680   1.375       .  A
C2679      H2691   1.083       .  S
C2680      H2692   1.082       .  S
C2681      C3769   1.406   1_545  A
C2682      C2939   1.475       .  S
C2683      C3776   1.410   1_545  A
C2683      C2964   1.493       .  S
C2684      C2950   1.474       .  S
N2695      C2700   1.352       .  A
N2695      C2699   1.353       .  A
N2695      H2727   1.041       .  S
N2696      C2703   1.353       .  A
N2696      C2704   1.351       .  A
N2697      C2702   1.353       .  A
N2697      C2701   1.346       .  A
N2697      H2728   1.040       .  S
N2698      C2705   1.343       .  A
N2698      C2706   1.347       .  A
C2699      C2707   1.384       .  A
C2699      C2715   1.408       .  A
C2700      C2716   1.416       .  A
C2700      C2708   1.390       .  A
C2701      C2709   1.386       .  A
C2701      C2718   1.405       .  A
C2702      C2717   1.414       .  A
C2702      C2710   1.388       .  A
C2703      C2715   1.407       .  A
C2703      C2711   1.383       .  A
C2704      C2718   1.414       .  A
C2704      C2712   1.389       .  A
C2705      C2713   1.386       .  A
C2705      C2716   1.403       .  A
C2706      C2714   1.386       .  A
C2706      C2717   1.409       .  A
C2707      C2708   1.376       .  A
C2707      H2719   1.083       .  S
C2708      H2720   1.082       .  S
C2709      C2710   1.378       .  A
C2709      H2721   1.082       .  S
C2710      H2722   1.082       .  S
C2711      C2712   1.372       .  A
C2711      H2723   1.082       .  S
C2712      H2724   1.082       .  S
C2713      C2714   1.376       .  A
C2713      H2725   1.082       .  S
C2714      H2726   1.082       .  S
C2716      C2953   1.473       .  S
C2717      C2922   1.487       .  S
C2718      C2936   1.474       .  S
N2729      C2734   1.354       .  A
N2729      C2733   1.344       .  A
N2729      H2761   1.039       .  S
N2730      C2737   1.348       .  A
N2730      C2738   1.352       .  A
N2731      C2736   1.350       .  A
N2731      C2735   1.356       .  A
N2731      H2762   1.042       .  S
N2732      C2739   1.352       .  A
N2732      C2740   1.345       .  A
C2733      C2741   1.382       .  A
C2733      C2749   1.400       .  A
C2734      C2742   1.393       .  A
C2735      C2743   1.383       .  A
C2735      C2752   1.411   1_655  A
C2736      C2751   1.418       .  A
C2736      C2744   1.392       .  A
C2737      C2749   1.410       .  A
C2737      C2745   1.388       .  A
C2738      C2746   1.383       .  A
C2739      C2747   1.389       .  A
C2739      C2750   1.421   1_655  A
C2740      C2748   1.386       .  A
C2740      C2751   1.410       .  A
C2741      C2742   1.372       .  A
C2741      H2753   1.083       .  S
C2742      H2754   1.079       .  S
C2743      C2744   1.375       .  A
C2743      H3859   1.082       .  S
C2744      H2756   1.082       .  S
C2745      C2746   1.375       .  A
C2745      H2757   1.082       .  S
C2746      H3862   1.082       .  S
C2747      C2748   1.373       .  A
C2747      H2759   1.080       .  S
C2748      H2760   1.083       .  S
C2749      C2908   1.468       .  S
C2751      C2897   1.474       .  S
C2752      C3020   1.498       .  S
H2755      C3847   1.082       .  S
H2758      C3850   1.083       .  S
N2763      C2768   1.355       .  A
N2763      C2767   1.343       .  A
N2763      H2795   1.041       .  S
N2764      C2771   1.346       .  A
N2764      C2772   1.351       .  A
N2765      C2770   1.348       .  A
N2765      C2769   1.352       .  A
N2765      H2796   1.044       .  S
N2766      C2773   1.350       .  A
N2766      C2774   1.342       .  A
C2767      C2775   1.384       .  A
C2767      C2783   1.402       .  A
C2768      C2776   1.391       .  A
C2769      C2777   1.382       .  A
C2769      C2786   1.403       .  A
C2770      C2785   1.412       .  A
C2770      C2778   1.392       .  A
C2771      C2783   1.410       .  A
C2771      C2779   1.390       .  A
C2772      C2780   1.383       .  A
C2773      C2781   1.390       .  A
C2773      C2784   1.420       .  A
C2774      C2782   1.385       .  A
C2774      C2785   1.403       .  A
C2775      C2776   1.375       .  A
C2775      H2787   1.083       .  S
C2776      H2788   1.080       .  S
C2777      C2778   1.374       .  A
C2777      H2789   1.082       .  S
C2778      H2790   1.082       .  S
C2779      C2780   1.374       .  A
C2779      H2791   1.082       .  S
C2780      H2792   1.082       .  S
C2781      C2782   1.375       .  A
C2781      H2793   1.080       .  S
C2782      H2794   1.083       .  S
C2783      C2880   1.463       .  S
C2785      C2866   1.468       .  S
C2786      C2981   1.489       .  S
N2797      C2802   1.346       .  A
N2797      C2801   1.356       .  A
N2797      H2829   1.037       .  S
N2798      C2805   1.351       .  A
N2798      C2806   1.344       .  A
N2799      C3908   1.355       .  A
N2799      C2803   1.351       .  A
N2799      H2830   1.041       .  S
N2800      C2807   1.349       .  A
N2800      C3912   1.352       .  A
C2801      C2809   1.391       .  A
C2801      C2817   1.422       .  A
C2802      C2818   1.408       .  A
C2802      C2810   1.384       .  A
C2803      C3915   1.392       .  A
C2803      C2820   1.417       .  A
C2804      N3903   1.358       .  A
C2804      C2819   1.408       .  A
C2804      C2812   1.382       .  A
C2805      C2817   1.418       .  A
C2805      C2813   1.389       .  A
C2806      C2820   1.408       .  A
C2806      C2814   1.386       .  A
C2807      C3919   1.391       .  A
C2807      C2818   1.414       .  A
C2808      N3904   1.353       .  A
C2808      C2816   1.382       .  A
C2808      C2819   1.403   1_545  A
C2809      C2810   1.375       .  A
C2809      H2821   1.080       .  S
C2810      H2822   1.083       .  S
C2811      C3907   1.392       .  A
C2811      C2812   1.373       .  A
C2811      H2823   1.082       .  S
C2812      H2824   1.082       .  S
C2813      C2814   1.372       .  A
C2813      H2825   1.080       .  S
C2814      H2826   1.083       .  S
C2815      C3911   1.391       .  A
C2815      C2816   1.371       .  A
C2815      H2827   1.082       .  S
C2816      H2828   1.082       .  S
C2818      C2911   1.470       .  S
C2819      C2967   1.493       .  S
C2820      C2894   1.473       .  S
N2831      C2836   1.345       .  A
N2831      C2835   1.356       .  A
N2831      H2863   1.039       .  S
N2832      C2839   1.351       .  A
N2832      C2840   1.343       .  A
N2833      C2838   1.354       .  A
N2833      C2837   1.349       .  A
N2833      H2864   1.040       .  S
N2834      C2841   1.347       .  A
N2834      C2842   1.351       .  A
C2835      C2843   1.392       .  A
C2835      C2851   1.422       .  A
C2836      C2852   1.403       .  A
C2836      C2844   1.382       .  A
C2837      C2845   1.392       .  A
C2837      C2854   1.415       .  A
C2838      C2853   1.405       .  A
C2838      C2846   1.382       .  A
C2839      C2851   1.419       .  A
C2839      C2847   1.390       .  A
C2840      C2854   1.405       .  A
C2840      C2848   1.385       .  A
C2841      C2849   1.390       .  A
C2841      C2852   1.409       .  A
C2842      C2850   1.382       .  A
C2842      C2853   1.401       .  A
C2843      C2844   1.375       .  A
C2843      H2855   1.079       .  S
C2844      H2856   1.083       .  S
C2845      C2846   1.375       .  A
C2845      H2857   1.082       .  S
C2846      H2858   1.083       .  S
C2847      C2848   1.373       .  A
C2847      H2859   1.080       .  S
C2848      H2860   1.083       .  S
C2849      C2850   1.370       .  A
C2849      H2861   1.081       .  S
C2850      H2862   1.083       .  S
C2852      C2883   1.467       .  S
C2853      C2925   1.483       .  S
C2854      C2869   1.470       .  S
C2865      C2866   1.398       .  A
C2865      C2870   1.382       .  A
C2865      H2872   1.085       .  S
C2866      C2867   1.407       .  A
C2867      C2868   1.397       .  A
C2867      N2874   1.431       .  S
C2868      C2869   1.403       .  A
C2868      H2873   1.083       .  S
C2869      C2870   1.412       .  A
C2870      N2871   1.434       .  S
N2871      H2875   1.042       .  S
N2871      H2876   1.047       .  S
N2874      H2877   1.045       .  S
N2874      H2878   1.044       .  S
C2879      C2880   1.400       .  A
C2879      C2884   1.397       .  A
C2879      H2886   1.084       .  S
C2880      C2881   1.409       .  A
C2881      C2882   1.381       .  A
C2881      N2888   1.434       .  S
C2882      C2883   1.400       .  A
C2882      H2887   1.085       .  S
C2883      C2884   1.412       .  A
C2884      N2885   1.435       .  S
N2885      H2889   1.045       .  S
N2885      H2890   1.044       .  S
N2888      H2891   1.046       .  S
N2888      H2892   1.044       .  S
C2893      C3998   1.396       .  A
C2893      C2898   1.386       .  A
C2893      H2900   1.085       .  S
C2894      C3997   1.398       .  A
C2894      C2895   1.410       .  A
C2895      C2896   1.401       .  A
C2895      N2902   1.432       .  S
C2896      C2897   1.405       .  A
C2896      H2901   1.083       .  S
C2897      C4002   1.405       .  A
C2898      C4001   1.406       .  A
C2898      N2899   1.434   1_565  S
N2899      H2903   1.045       .  S
N2899      H2904   1.046       .  S
N2902      H2905   1.045       .  S
N2902      H2906   1.044       .  S
C2907      C4012   1.400       .  A
C2907      C2912   1.398       .  A
C2907      H2914   1.084       .  S
C2908      C4011   1.400       .  A
C2908      C2909   1.408       .  A
C2909      C2910   1.387       .  A
C2909      N2916   1.434       .  S
C2910      C2911   1.398       .  A
C2910      H2915   1.085       .  S
C2911      C4016   1.404       .  A
C2912      C4015   1.399       .  A
C2912      N2913   1.428       .  S
N2913      H2917   1.046       .  S
N2913      H2918   1.043       .  S
N2916      H2919   1.046       .  S
N2916      H2920   1.046       .  S
C2921      C2922   1.403       .  A
C2921      C2926   1.400       .  A
C2921      H2928   1.084       .  S
C2922      C2923   1.409       .  A
C2923      C2924   1.405       .  A
C2923      N2930   1.437       .  S
C2924      C2925   1.403       .  A
C2924      H2929   1.084       .  S
C2925      C2926   1.416       .  A
C2926      N2927   1.439       .  S
N2927      H2931   1.045       .  S
N2927      H2932   1.044       .  S
N2930      H2933   1.046       .  S
N2930      H2934   1.045       .  S
C2935      C2936   1.398       .  A
C2935      C2940   1.387       .  A
C2935      H2942   1.085       .  S
C2936      C2937   1.411       .  A
C2937      C2938   1.409       .  A
C2937      N2944   1.437       .  S
C2938      C2939   1.403       .  A
C2938      H2943   1.083       .  S
C2939      C2940   1.405       .  A
C2940      N2941   1.434       .  S
N2941      H2945   1.046       .  S
N2941      H2946   1.045       .  S
N2944      H2947   1.044       .  S
N2944      H2948   1.046       .  S
C2949      C2950   1.400       .  A
C2949      C2954   1.388       .  A
C2949      H2956   1.085       .  S
C2950      C2951   1.416       .  A
C2951      C2952   1.404       .  A
C2951      N2958   1.437       .  S
C2952      C2953   1.402       .  A
C2952      H2957   1.083       .  S
C2953      C2954   1.405       .  A
C2954      N2955   1.434       .  S
N2955      H2959   1.045       .  S
N2955      H2960   1.046       .  S
N2958      H2961   1.044       .  S
N2958      H2962   1.045       .  S
C2963      C4068   1.405       .  A
C2963      C2968   1.398       .  A
C2963      H2970   1.084       .  S
C2964      C4067   1.403   1_545  A
C2964      C2965   1.410       .  A
C2965      C2966   1.409       .  A
C2965      N2972   1.438       .  S
C2966      C2967   1.405   1_545  A
C2966      H2971   1.084       .  S
C2967      C4072   1.417       .  A
C2968      C4071   1.410       .  A
C2968      N2969   1.432       .  S
N2969      H2973   1.045       .  S
N2969      H2974   1.045       .  S
N2972      H2975   1.045       .  S
N2972      H2976   1.045       .  S
C2977      C2978   1.403       .  A
C2977      C2982   1.400       .  A
C2977      H2984   1.084       .  S
C2979      C2980   1.408       .  A
C2979      N2986   1.438       .  S
C2980      H2985   1.084       .  S
C2981      C2982   1.415       .  A
C2982      N2983   1.433       .  S
N2983      H2987   1.043       .  S
N2983      H2988   1.046   1_655  S
N2986      H2989   1.045       .  S
N2986      H2990   1.046       .  S
C2991      C2996   1.405       .  A
C2991      H2998   1.084       .  S
C2992      C2993   1.405       .  A
C2993      C2994   1.385       .  A
C2993      N3000   1.434       .  S
C2994      C2995   1.399       .  A
C2994      H2999   1.085       .  S
C2996      N2997   1.437       .  S
N2997      H3001   1.046       .  S
N2997      H3002   1.044       .  S
N3000      H3003   1.046       .  S
N3000      H3004   1.045   1_455  S
C3005      C3006   1.405       .  A
C3005      C3010   1.404       .  A
C3005      H3012   1.083       .  S
C3007      C3008   1.382       .  A
C3007      N3014   1.434       .  S
C3008      H3013   1.085       .  S
C3009      C3010   1.414       .  A
C3010      N3011   1.432       .  S
N3011      H3015   1.044       .  S
N3011      H3016   1.045       .  S
N3014      H3017   1.046       .  S
N3014      H3018   1.043       .  S
C3019      C3020   1.406   1_655  A
C3019      C3024   1.401       .  A
C3019      H3026   1.084       .  S
C3021      C3022   1.399       .  A
C3021      N3028   1.433       .  S
C3022      H3027   1.084       .  S
C3023      C3024   1.414   1_455  A
C3023      C3719   1.493       .  S
C3024      N3025   1.433       .  S
N3025      H3029   1.043   1_655  S
N3025      H3030   1.046       .  S
N3028      H3031   1.046       .  S
N3028      H3032   1.043       .  S
C3033      C3034   1.410       .  A
C3033      C3038   1.417       .  A
C3033      H3040   1.083       .  S
C3034      C3035   1.422       .  A
C3035      C3036   1.426       .  A
C3035      N3042   1.437       .  S
C3036      C3037   1.412       .  A
C3036      H3041   1.083       .  S
C3037      C3038   1.417       .  A
C3038      N3039   1.432       .  S
N3039      H3043   1.046       .  S
N3039      H3044   1.046       .  S
N3042      H3045   1.046   1_554  S
N3042      H3046   1.045       .  S
C3047      C3048   1.410       .  A
C3047      C3052   1.420       .  A
C3047      H3054   1.083       .  S
C3048      C3049   1.421       .  A
C3049      C3050   1.424       .  A
C3049      N3056   1.437       .  S
C3050      C3051   1.412       .  A
C3050      H3055   1.083       .  S
C3051      C3052   1.422       .  A
C3052      N3053   1.437       .  S
N3053      H3057   1.045       .  S
N3053      H3058   1.045       .  S
N3056      H3059   1.045       .  S
N3056      H3060   1.046       .  S
C3061      C3062   1.411       .  A
C3061      C3066   1.420       .  A
C3062      C3063   1.417       .  A
C3063      C3064   1.420       .  A
C3063      N3070   1.432       .  S
C3064      C3065   1.413       .  A
C3064      H3069   1.083       .  S
C3065      C3066   1.420       .  A
N3067      H3071   1.044       .  S
N3067      H3072   1.047       .  S
N3070      H3073   1.046       .  S
N3070      H3074   1.045       .  S
C3075      C3076   1.412       .  A
C3075      C3080   1.422       .  A
C3075      H3082   1.083       .  S
C3076      C3077   1.421       .  A
C3077      C3078   1.419       .  A
C3078      C3079   1.409       .  A
C3079      C3080   1.420       .  A
C3080      N3081   1.432       .  S
N3081      H3085   1.045       .  S
N3081      H3086   1.046       .  S
N3084      H3087   1.046   1_554  S
N3084      H3088   1.045       .  S
C3089      C3090   1.413       .  A
C3089      C3094   1.422       .  A
C3089      H3096   1.083       .  S
C3090      C3091   1.418       .  A
C3091      C3092   1.422       .  A
C3091      N3098   1.431       .  S
C3092      C3093   1.413       .  A
C3092      H3097   1.083       .  S
C3093      C3094   1.420       .  A
C3094      N3095   1.432       .  S
N3095      H3099   1.046       .  S
N3095      H3100   1.045       .  S
N3098      H3101   1.046       .  S
N3098      H3102   1.045       .  S
C3103      C3104   1.415       .  A
C3103      C3108   1.428       .  A
C3103      H3110   1.083       .  S
C3104      C3105   1.421       .  A
C3105      C3106   1.426       .  A
C3105      N3112   1.437       .  S
C3106      C3107   1.413       .  A
C3106      H3111   1.083       .  S
C3107      C3108   1.423       .  A
C3108      N3109   1.437       .  S
N3109      H3113   1.045       .  S
N3109      H3114   1.046       .  S
N3112      H3115   1.046       .  S
N3112      H3116   1.046       .  S
C3117      C3118   1.415       .  A
C3117      C3122   1.427       .  A
C3117      H3124   1.083       .  S
C3118      C4223   1.421       .  A
C3119      C4222   1.422   1_545  A
C3119      C3120   1.426       .  A
C3119      N3126   1.437       .  S
C3120      C4225   1.411   1_545  A
C3120      H3125   1.083       .  S
C3121      C4224   1.413       .  A
C3121      C3122   1.421       .  A
C3122      N3123   1.437       .  S
N3123      H3127   1.046       .  S
N3123      H3128   1.046       .  S
N3126      H3129   1.046       .  S
N3126      H3130   1.045       .  S
C3131      C4236   1.413   1_545  A
C3131      C3136   1.425       .  A
C3131      H3138   1.083       .  S
C3132      C4235   1.413       .  A
C3132      C3133   1.421       .  A
C3133      C3134   1.424       .  A
C3133      N3140   1.431       .  S
C3134      C3135   1.412       .  A
C3134      H3139   1.083       .  S
C3135      C4240   1.422       .  A
C3136      C4239   1.421   1_545  A
C3136      N3137   1.431       .  S
N3137      H3141   1.046       .  S
N3137      H3142   1.046       .  S
N3140      H3143   1.047       .  S
N3140      H3144   1.044       .  S
C3145      C3146   1.404       .  A
C3145      C3150   1.404       .  A
C3145      H3152   1.082       .  S
C3146      C3147   1.410       .  A
C3147      C3148   1.390       .  A
C3147      N3154   1.439       .  S
C3148      C3149   1.397       .  A
C3148      H3153   1.085       .  S
C3149      C3150   1.403       .  A
C3150      N3151   1.430       .  S
N3151      H3155   1.044       .  S
N3151      H3156   1.046       .  S
N3154      H3157   1.045       .  S
N3154      H3158   1.046       .  S
C3159      C3160   1.403       .  A
C3159      C3164   1.405       .  A
C3159      H3166   1.083       .  S
C3160      C3161   1.409       .  A
C3161      C3162   1.390       .  A
C3161      N3168   1.440       .  S
C3162      C3163   1.398       .  A
C3162      H3167   1.085       .  S
C3163      C3164   1.410       .  A
C3164      N3165   1.437       .  S
N3165      H3169   1.046       .  S
N3165      H3170   1.043       .  S
N3168      H3171   1.045       .  S
N3168      H3172   1.046       .  S
C3173      C3174   1.398       .  A
C3173      C3178   1.392       .  A
C3173      H3180   1.085       .  S
C3174      C4279   1.404       .  A
C3175      C4278   1.408       .  A
C3175      C3176   1.405       .  A
C3175      N3182   1.436       .  S
C3176      C3177   1.404       .  A
C3176      H3181   1.081       .  S
C3177      C4282   1.406       .  A
C3178      C4281   1.412       .  A
C3178      N3179   1.440   1_565  S
N3179      H3183   1.046       .  S
N3179      H3184   1.046       .  S
N3182      H3185   1.045       .  S
N3182      H3186   1.046       .  S
C3187      C3188   1.398       .  A
C3187      C3192   1.383       .  A
C3187      H3194   1.085       .  S
C3188      C4293   1.414       .  A
C3189      C4292   1.408       .  A
C3189      C3190   1.399       .  A
C3189      N3196   1.430       .  S
C3190      C3191   1.402       .  A
C3190      H3195   1.083       .  S
C3191      C4296   1.404       .  A
C3192      C4295   1.405       .  A
C3192      N3193   1.434       .  S
N3193      H3197   1.046       .  S
N3193      H3198   1.046       .  S
N3196      H3199   1.045       .  S
N3196      H3200   1.045       .  S
C3201      C3202   1.404       .  A
C3201      C3206   1.404       .  A
C3201      H3208   1.084       .  S
C3202      C3203   1.417       .  A
C3203      C3204   1.403       .  A
C3203      N3210   1.439       .  S
C3204      C3205   1.403       .  A
C3204      H3209   1.084       .  S
C3205      C3206   1.416       .  A
C3206      N3207   1.438       .  S
N3207      H3211   1.045       .  S
N3207      H3212   1.044       .  S
N3210      H3213   1.043       .  S
N3210      H3214   1.046       .  S
C3215      C3216   1.404       .  A
C3215      C3220   1.404       .  A
C3215      H3222   1.083       .  S
C3216      C3217   1.413       .  A
C3217      C3218   1.383       .  A
C3217      N3224   1.434       .  S
C3218      C3219   1.398       .  A
C3218      H3223   1.085       .  S
C3219      C3220   1.412       .  A
C3220      N3221   1.436       .  S
N3221      H3225   1.045       .  S
N3221      H3226   1.044       .  S
N3224      H3227   1.044       .  S
N3224      H3228   1.045       .  S
C3229      C3230   1.397       .  A
C3229      C3234   1.386       .  A
C3229      H3236   1.085       .  S
C3230      C3231   1.406       .  A
C3231      C3232   1.406       .  A
C3231      N3238   1.430       .  S
C3232      C3233   1.404       .  A
C3232      H3237   1.083       .  S
C3233      C3234   1.406       .  A
C3234      N3235   1.434       .  S
N3235      H3239   1.046       .  S
N3235      H3240   1.045       .  S
N3238      H3241   1.045       .  S
N3238      H3242   1.045       .  S
C3243      C3244   1.404       .  A
C3243      C3248   1.405       .  A
C3243      H3250   1.084       .  S
C3244      C4349   1.417       .  A
C3245      C4348   1.409       .  A
C3245      C3246   1.396       .  A
C3245      N3252   1.432       .  S
C3246      C4351   1.402   1_545  A
C3246      H3251   1.084       .  S
C3247      C4350   1.402       .  A
C3247      C3248   1.418       .  A
C3248      N3249   1.438       .  S
N3249      H3253   1.046       .  S
N3249      H3254   1.044       .  S
N3252      H3255   1.046       .  S
N3252      H3256   1.045       .  S
C3257      C3258   1.402   1_655  A
C3257      C3262   1.406       .  A
C3257      H3264   1.084       .  S
C3259      C3260   1.402       .  A
C3259      N3266   1.438       .  S
C3260      H3265   1.084       .  S
C3261      C3262   1.409       .  A
C3262      N3263   1.431       .  S
N3263      H3267   1.046       .  S
N3263      H3268   1.046       .  S
N3266      H3269   1.043       .  S
N3266      H3270   1.046       .  S
C3271      C3272   1.406       .  A
C3271      C3276   1.409       .  A
C3271      H3278   1.083       .  S
C3273      C3274   1.390       .  A
C3273      N3280   1.434       .  S
C3274      H3279   1.085       .  S
C3275      C3276   1.407       .  A
C3276      N3277   1.435       .  S
N3277      H3281   1.045       .  S
N3277      H3282   1.045       .  S
N3280      H3283   1.045       .  S
N3280      H3284   1.046       .  S
C3285      C3286   1.398       .  A
C3285      C3290   1.384       .  A
C3285      H3292   1.085       .  S
C3287      C3288   1.401       .  A
C3287      N3294   1.432       .  S
C3288      H3293   1.082       .  S
C3289      C3290   1.413       .  A
C3290      N3291   1.434       .  S
N3291      H3295   1.044       .  S
N3291      H3296   1.045       .  S
N3294      H3297   1.045       .  S
N3294      H3298   1.044       .  S
C3299      C4408   1.402       .  A
C3299      H4410   1.084       .  S
C3300      C3301   1.408   1_455  A
C3301      C3302   1.404       .  A
C3301      N3308   1.432       .  S
C3302      C3303   1.403   1_655  A
C3302      H3307   1.084       .  S
C3304      C4403   1.403       .  A
C3304      N3305   1.438       .  S
N3305      H3309   1.046       .  S
N3305      H3310   1.043       .  S
H3306      C4403   1.084       .  S
N3308      H3311   1.046       .  S
N3308      H3312   1.045       .  S
N3313      C3318   1.353       .  A
N3313      C3317   1.353       .  A
N3313      H3345   1.040       .  S
N3314      C3321   1.353       .  A
N3314      C3322   1.351       .  A
N3315      C3320   1.353       .  A
N3315      C3319   1.345       .  A
N3315      H3346   1.039   1_655  S
N3316      C3323   1.345       .  A
N3316      C3324   1.350       .  A
C3317      C3325   1.385       .  A
C3318      C3334   1.415       .  A
C3318      C3326   1.390       .  A
C3319      C3327   1.387       .  A
C3319      C3336   1.405       .  A
C3320      C3328   1.386       .  A
C3321      C3333   1.408   1_565  A
C3321      C3329   1.384       .  A
C3322      C3330   1.389       .  A
C3323      C3331   1.386       .  A
C3324      C3332   1.386       .  A
C3324      C3335   1.414       .  A
C3325      C3326   1.373       .  A
C3325      H3337   1.083       .  S
C3326      H3338   1.083       .  S
C3327      C3328   1.378       .  A
C3327      H3339   1.083       .  S
C3328      H3340   1.082       .  S
C3329      C3330   1.370       .  A
C3329      H3341   1.082       .  S
C3330      H3342   1.081       .  S
C3331      C3332   1.376       .  A
C3331      H3343   1.082       .  S
C3332      H3344   1.082       .  S
C3335      C4407   1.494       .  S
C3336      C4376   1.471       .  S
N3347      C3352   1.354       .  A
N3347      C3351   1.357       .  A
N3347      H3379   1.039       .  S
N3348      C3355   1.354       .  A
N3348      C3356   1.353       .  A
N3349      C3354   1.350       .  A
N3349      C3353   1.345       .  A
N3349      H3380   1.038       .  S
N3350      C3357   1.344       .  A
N3350      C3358   1.349       .  A
C3351      C3359   1.385       .  A
C3351      C3367   1.414       .  A
C3352      C3360   1.390       .  A
C3353      C3361   1.387       .  A
C3353      C3370   1.403       .  A
C3354      C3369   1.410       .  A
C3354      C3362   1.387       .  A
C3355      C3367   1.411       .  A
C3355      C3363   1.384       .  A
C3356      C3364   1.388       .  A
C3357      C3365   1.388       .  A
C3357      C3368   1.407       .  A
C3358      C3366   1.385       .  A
C3358      C3369   1.410   1_455  A
C3359      C3360   1.376       .  A
C3359      H3371   1.083       .  S
C3360      H3372   1.082       .  S
C3361      C3362   1.375       .  A
C3361      H3373   1.083       .  S
C3362      H3374   1.082       .  S
C3363      C3364   1.371       .  A
C3363      H3375   1.082       .  S
C3364      H3376   1.081       .  S
C3365      C3366   1.376       .  A
C3365      H3377   1.083       .  S
C3366      H3378   1.082       .  S
C3367      C3667   1.488       .  S
C3368      C4390   1.476       .  S
C3369      C4362   1.481       .  S
C3370      C4379   1.471       .  S
N3381      C3386   1.353       .  A
N3381      C3385   1.353       .  A
N3381      H3413   1.040       .  S
N3382      C3389   1.354       .  A
N3382      C3390   1.351       .  A
N3383      C3388   1.355       .  A
N3383      C3387   1.346       .  A
N3383      H3414   1.036       .  S
N3384      C3391   1.344       .  A
N3384      C3392   1.348       .  A
C3385      C3393   1.384       .  A
C3385      C3401   1.407   1_565  A
C3386      C3402   1.416       .  A
C3386      C3394   1.390       .  A
C3387      C3395   1.388       .  A
C3387      C3404   1.411       .  A
C3388      C3396   1.387       .  A
C3389      C3397   1.382       .  A
C3390      C3404   1.417       .  A
C3390      C3398   1.391       .  A
C3391      C3399   1.387       .  A
C3391      C3402   1.404       .  A
C3392      C3400   1.386       .  A
C3392      C3403   1.410   1_565  A
C3393      C3394   1.372       .  A
C3393      H3405   1.083       .  S
C3394      H3406   1.082       .  S
C3395      C3396   1.378       .  A
C3395      H3407   1.083       .  S
C3396      H3408   1.082       .  S
C3397      C3398   1.370       .  A
C3397      H3409   1.083       .  S
C3398      H3410   1.082       .  S
C3399      C3400   1.373       .  A
C3399      H3411   1.083       .  S
C3400      H3412   1.082       .  S
C3402      C4323   1.473       .  S
C3403      C4348   1.482       .  S
C3404      C4334   1.472       .  S
N3415      C3420   1.353       .  A
N3415      C3419   1.356       .  A
N3415      H3447   1.039       .  S
N3416      C3423   1.351       .  A
N3416      C3424   1.351       .  A
N3417      C3422   1.351       .  A
N3417      C3421   1.345       .  A
N3417      H3448   1.037       .  S
N3418      C3425   1.344       .  A
N3418      C3426   1.350       .  A
C3419      C3427   1.384       .  A
C3419      C3435   1.412       .  A
C3420      C3436   1.420       .  A
C3420      C3428   1.391       .  A
C3421      C3429   1.386       .  A
C3421      C3438   1.403       .  A
C3422      C3437   1.411       .  A
C3422      C3430   1.388       .  A
C3423      C3435   1.408       .  A
C3423      C3431   1.385       .  A
C3424      C3438   1.411       .  A
C3424      C3432   1.388       .  A
C3425      C3433   1.388       .  A
C3425      C3436   1.408       .  A
C3426      C3434   1.385       .  A
C3426      C3437   1.411       .  A
C3427      C3428   1.374       .  A
C3427      H3439   1.083       .  S
C3428      H3440   1.082       .  S
C3429      C3430   1.374       .  A
C3429      H3441   1.083       .  S
C3430      H3442   1.082       .  S
C3431      C3432   1.371       .  A
C3431      H3443   1.082       .  S
C3432      H3444   1.082       .  S
C3433      C3434   1.376       .  A
C3433      H3445   1.083       .  S
C3434      H3446   1.082       .  S
C3435      C3695   1.479       .  S
C3436      C4320   1.476       .  S
C3437      C4306   1.484       .  S
C3438      C4337   1.471       .  S
N3449      C3454   1.351       .  A
N3449      C3453   1.355       .  A
N3449      H3481   1.042       .  S
N3450      C3457   1.352       .  A
N3450      C3458   1.350       .  A
N3451      C3456   1.354       .  A
N3451      C3455   1.345       .  A
N3451      H3482   1.039       .  S
N3452      C3459   1.343       .  A
N3452      C3460   1.348       .  A
C3453      C3461   1.383       .  A
C3454      C3470   1.416       .  A
C3454      C3462   1.392       .  A
C3455      C3463   1.387       .  A
C3455      C3472   1.406       .  A
C3456      C3471   1.415   1_655  A
C3456      C3464   1.387       .  A
C3457      C3469   1.402   1_655  A
C3457      C3465   1.382       .  A
C3458      C3472   1.413       .  A
C3458      C3466   1.391       .  A
C3459      C3467   1.389       .  A
C3459      C3470   1.406       .  A
C3460      C3468   1.385       .  A
C3461      C3462   1.372       .  A
C3461      H3473   1.083       .  S
C3462      H3474   1.081       .  S
C3463      C3464   1.378       .  A
C3463      H3475   1.083       .  S
C3464      H3476   1.082       .  S
C3465      C3466   1.369       .  A
C3465      H3477   1.083       .  S
C3466      H3478   1.081       .  S
C3467      C3468   1.373       .  A
C3467      H3479   1.083       .  S
C3468      H3480   1.082       .  S
C3470      C4295   1.470       .  S
C3471      C4404   1.488       .  S
C3472      C4278   1.472       .  S
N3483      C3488   1.352       .  A
N3483      C3487   1.354       .  A
N3483      H3515   1.039       .  S
N3484      C3491   1.354       .  A
N3484      C3492   1.352       .  A
N3485      C3490   1.353       .  A
N3485      C3489   1.346       .  A
N3485      H3516   1.037       .  S
N3486      C3493   1.344       .  A
N3486      C3494   1.350       .  A
C3487      C3495   1.384       .  A
C3488      C3504   1.418       .  A
C3488      C3496   1.392       .  A
C3489      C3497   1.387       .  A
C3489      C3506   1.410       .  A
C3490      C3505   1.414       .  A
C3490      C3498   1.387       .  A
C3491      C3503   1.413       .  A
C3491      C3499   1.385       .  A
C3492      C3506   1.417       .  A
C3492      C3500   1.389       .  A
C3493      C3501   1.387       .  A
C3493      C3504   1.408       .  A
C3494      C3502   1.386       .  A
C3495      C3496   1.374       .  A
C3495      H3507   1.083       .  S
C3496      H3508   1.082       .  S
C3497      C3498   1.378       .  A
C3497      H3509   1.083       .  S
C3498      H3510   1.082       .  S
C3499      C3500   1.373       .  A
C3499      H3511   1.082       .  S
C3500      H3512   1.082       .  S
C3501      C3502   1.376       .  A
C3501      H3513   1.083       .  S
C3502      H3514   1.082       .  S
C3503      C3612   1.477       .  S
C3504      C4264   1.473       .  S
C3505      C4365   1.481       .  S
C3506      C4250   1.475       .  S
N3517      C3522   1.352       .  A
N3517      C3521   1.354       .  A
N3517      H3549   1.042       .  S
N3518      C3525   1.353       .  A
N3518      C3526   1.352       .  A
N3519      C3524   1.352       .  A
N3519      C3523   1.345       .  A
N3519      H3550   1.039       .  S
N3520      C3527   1.342       .  A
N3520      C3528   1.347       .  A
C3521      C3529   1.384       .  A
C3521      C3537   1.408   1_545  A
C3522      C3538   1.416       .  A
C3522      C3530   1.391       .  A
C3523      C3531   1.385       .  A
C3523      C3540   1.404       .  A
C3524      C3539   1.415   1_565  A
C3524      C3532   1.388       .  A
C3525      C3537   1.409       .  A
C3525      C3533   1.384       .  A
C3526      C3540   1.414       .  A
C3526      C3534   1.388       .  A
C3527      C3535   1.387       .  A
C3527      C3538   1.403       .  A
C3528      C3536   1.386       .  A
C3528      C3539   1.409       .  A
C3529      C3530   1.370       .  A
C3529      H3541   1.083       .  S
C3530      H3542   1.082       .  S
C3531      C3532   1.379       .  A
C3531      H3543   1.083       .  S
C3532      H3544   1.082       .  S
C3533      C3534   1.374       .  A
C3533      H3545   1.082       .  S
C3534      H3546   1.082       .  S
C3535      C3536   1.374       .  A
C3535      H3547   1.083       .  S
C3536      H3548   1.082       .  S
C3537      C3626   1.480       .  S
C3538      C4292   1.469       .  S
C3539      C4351   1.484   1_545  S
C3540      C4281   1.475       .  S
N3551      C3556   1.354       .  A
N3551      C3555   1.356       .  A
N3551      H3583   1.040       .  S
N3552      C3559   1.352       .  A
N3552      C3560   1.351       .  A
N3553      C3558   1.351       .  A
N3553      C3557   1.346       .  A
N3553      H3584   1.038       .  S
N3554      C3561   1.343       .  A
N3554      C3562   1.349       .  A
C3555      C3563   1.384       .  A
C3555      C3571   1.413       .  A
C3556      C3572   1.421       .  A
C3556      C3564   1.390       .  A
C3557      C3565   1.385       .  A
C3557      C3574   1.402       .  A
C3558      C3573   1.413       .  A
C3558      C3566   1.389       .  A
C3559      C3571   1.409       .  A
C3559      C3567   1.385       .  A
C3560      C3574   1.411       .  A
C3560      C3568   1.387       .  A
C3561      C3569   1.389       .  A
C3561      C3572   1.407       .  A
C3562      C3570   1.385       .  A
C3562      C3573   1.410       .  A
C3563      C3564   1.375       .  A
C3563      H3575   1.083       .  S
C3564      H3576   1.082       .  S
C3565      C3566   1.373       .  A
C3565      H3577   1.083       .  S
C3566      H3578   1.082       .  S
C3567      C3568   1.371       .  A
C3567      H3579   1.082       .  S
C3568      H3580   1.082       .  S
C3569      C3570   1.377       .  A
C3569      H3581   1.083       .  S
C3570      H3582   1.082       .  S
C3571      C3639   1.483       .  S
C3572      C4267   1.475       .  S
C3573      C4309   1.483       .  S
C3574      C4253   1.471       .  S
O3585      V3593   1.939   1_655  S
O3587      V3593   1.896       .  S
O3588      V3593   1.898       .  S
O3589      V3594   1.908       .  S
O3589      C3598   1.266       .  A
O3590      V3594   1.904       .  S
O3590      C3597   1.265       .  A
O3591      C3596   1.273       .  A
O3592      V3594   1.936   1_655  S
O3592      C3595   1.273       .  A
C3595      C4222   1.530       .  S
C3596      C4236   1.533       .  S
C3598      C3854   1.491       .  S
O3599      V3607   1.924       .  S
O3599      C3609   1.270       .  A
O3600      C3610   1.273       .  A
O3601      V3607   1.909       .  S
O3601      C3611   1.266       .  A
O3602      V3607   1.906       .  S
O3602      C3612   1.266       .  A
O3603      V3608   1.894       .  S
O3603      C3612   1.260       .  A
O3604      V3608   1.892       .  S
O3604      C3611   1.262       .  A
O3605      C3610   1.274       .  A
O3606      V3608   1.934       .  S
O3606      C3609   1.273       .  A
V3607      V3608   2.081       .  T
C3609      C4194   1.522       .  S
C3610      C4208   1.534       .  S
C3611      C3888   1.492       .  S
O3613      V3621   1.925       .  S
O3614      V3621   1.930       .  S
O3615      V3621   1.901       .  S
O3616      V3621   1.901       .  S
O3617      V3622   1.902       .  S
O3617      C3626   1.264       .  A
O3618      V3622   1.905       .  S
O3618      C3625   1.265       .  A
O3619      V3622   1.938       .  S
O3619      C3624   1.274       .  A
O3620      V3622   1.934       .  S
O3620      C3623   1.273       .  A
C3623      C4225   1.529       .  S
C3624      C4239   1.535       .  S
C3625      C3921   1.491       .  S
O3627      V3635   1.926       .  S
O3627      C3637   1.271       .  A
O3628      V3635   1.933       .  S
O3628      C3638   1.273       .  A
O3629      V3635   1.900       .  S
O3629      C3639   1.263       .  A
O3630      V3635   1.898       .  S
O3630      C3640   1.264       .  A
O3631      V3636   1.916       .  S
O3631      C3640   1.268       .  A
O3632      V3636   1.907       .  S
O3632      C3639   1.266       .  A
O3633      V3636   1.937       .  S
O3633      C3638   1.274       .  A
O3634      V3636   1.930       .  S
O3634      C3637   1.272       .  A
V3635      V3636   2.079       .  T
C3637      C4197   1.523       .  S
C3638      C4211   1.533       .  S
C3640      C3955   1.500       .  S
O3641      V3649   1.898   1_556  S
O3641      C3651   1.263       .  A
O3642      V3649   1.900       .  S
O3642      C3652   1.264       .  A
O3643      C3653   1.275       .  A
O3644      V3649   1.935       .  S
O3644      C3654   1.274       .  A
O3645      V3650   1.927       .  S
O3645      C3654   1.271       .  A
O3646      C3653   1.271       .  A
O3647      V3650   1.907       .  S
O3647      C3652   1.265       .  A
O3648      V3650   1.903   1_556  S
O3648      C3651   1.265       .  A
V3649      V3650   2.081       .  T
C3651      C3717   1.480       .  S
C3653      C4166   1.530       .  S
C3654      C4180   1.528       .  S
O3655      C3665   1.275       .  A
O3656      C3666   1.275       .  A
O3657      C3667   1.264       .  A
O3658      C3668   1.263       .  A
O3659      V3664   1.912   1_556  S
O3659      C3668   1.268       .  A
O3660      V3664   1.913       .  S
O3660      C3667   1.267       .  A
O3661      V3664   1.924       .  S
O3661      C3666   1.270       .  A
O3662      V3664   1.928       .  S
O3662      C3665   1.271       .  A
C3665      C4169   1.531       .  S
C3666      C4183   1.529       .  S
C3668      C3751   1.488       .  S
O3669      V3677   1.935       .  S
O3669      C3679   1.273       .  A
O3670      C3680   1.271       .  A
O3671      V3677   1.899   1_556  S
O3671      C3681   1.263       .  A
O3672      V3677   1.900       .  S
O3672      C3682   1.263       .  A
O3673      V3678   1.903       .  S
O3673      C3682   1.265       .  A
O3674      V3678   1.898   1_556  S
O3674      C3681   1.263       .  A
O3675      C3680   1.273       .  A
O3676      V3678   1.926       .  S
O3676      C3679   1.271       .  A
V3677      V3678   2.083       .  T
C3679      C4155   1.530       .  S
C3680      C4141   1.526       .  S
C3681      C3785   1.474       .  S
O3683      V3691   1.934       .  S
O3683      C3693   1.273       .  A
O3684      V3691   1.926       .  S
O3684      C3694   1.272       .  A
O3685      V3691   1.902       .  S
O3685      C3695   1.264       .  A
O3686      V3691   1.901   1_556  S
O3686      C3696   1.263       .  A
O3687      V3692   1.899   1_556  S
O3687      C3696   1.263       .  A
O3688      V3692   1.898       .  S
O3688      C3695   1.264       .  A
O3689      V3692   1.932       .  S
O3689      C3694   1.272       .  A
O3690      V3692   1.928       .  S
O3690      C3693   1.272       .  A
V3691      V3692   2.083       .  T
C3693      C4152   1.530       .  S
C3694      C4138   1.527       .  S
C3696      C3819   1.477       .  S
N3697      C3702   1.353       .  A
N3697      C3701   1.353       .  A
N3697      H3729   1.043   1_565  S
N3698      C3705   1.353       .  A
N3698      C3706   1.352       .  A
N3699      C3704   1.354       .  A
N3699      C3703   1.346       .  A
N3699      H3730   1.038   1_655  S
N3700      C3707   1.345       .  A
N3700      C3708   1.348   1_565  A
C3701      C3709   1.384       .  A
C3702      C3710   1.391       .  A
C3703      C3711   1.384       .  A
C3703      C3720   1.404       .  A
C3704      C3719   1.416   1_655  A
C3704      C3712   1.388       .  A
C3705      C3717   1.409       .  A
C3705      C3713   1.385       .  A
C3706      C3714   1.388       .  A
C3707      C3715   1.384       .  A
C3707      C3718   1.402       .  A
C3708      C3716   1.387   1_545  A
C3709      C3710   1.375       .  A
C3709      H3721   1.083       .  S
C3710      H3722   1.081       .  S
C3711      C3712   1.378       .  A
C3711      H3723   1.082       .  S
C3712      H3724   1.082       .  S
C3713      C3714   1.373       .  A
C3713      H3725   1.083       .  S
C3714      H3726   1.082       .  S
C3715      C3716   1.375       .  A
C3715      H3727   1.082       .  S
C3716      H3728   1.082       .  S
C3718      C4099   1.478       .  S
C3720      C4113   1.476       .  S
N3731      C3736   1.355       .  A
N3731      C3735   1.358       .  A
N3731      H3763   1.040       .  S
N3732      C3739   1.352       .  A
N3732      C3740   1.350       .  A
N3733      C3738   1.356       .  A
N3733      C3737   1.347       .  A
N3733      H3764   1.039       .  S
N3734      C3741   1.346       .  A
N3734      C3742   1.352       .  A
C3735      C3743   1.384       .  A
C3735      C3751   1.417       .  A
C3736      C3744   1.390       .  A
C3737      C3745   1.387       .  A
C3737      C3754   1.410       .  A
C3738      C3753   1.419       .  A
C3738      C3746   1.387       .  A
C3739      C3751   1.409       .  A
C3739      C3747   1.385       .  A
C3740      C3748   1.388       .  A
C3741      C3749   1.386       .  A
C3741      C3752   1.409       .  A
C3742      C3750   1.386       .  A
C3742      C3753   1.417   1_655  A
C3743      C3744   1.377       .  A
C3743      H3755   1.082       .  S
C3744      H3756   1.082       .  S
C3745      C3746   1.379       .  A
C3745      H3757   1.083       .  S
C3746      H3758   1.082       .  S
C3747      C3748   1.372       .  A
C3747      H3759   1.082       .  S
C3748      H3760   1.082       .  S
C3749      C3750   1.377       .  A
C3749      H3761   1.082       .  S
C3750      H3762   1.082       .  S
C3752      C4110   1.478       .  S
C3753      C4082   1.502       .  S
C3754      C4096   1.481       .  S
N3765      C3770   1.352       .  A
N3765      C3769   1.354       .  A
N3765      H3797   1.042       .  S
N3766      C3773   1.350       .  A
N3766      C3774   1.350       .  A
N3767      C3772   1.352       .  A
N3767      C3771   1.345       .  A
N3767      H3798   1.041       .  S
N3768      C3775   1.343       .  A
N3768      C3776   1.349       .  A
C3769      C3777   1.383       .  A
C3770      C3786   1.417       .  A
C3770      C3778   1.392       .  A
C3771      C3779   1.385       .  A
C3771      C3788   1.402       .  A
C3772      C3787   1.413       .  A
C3772      C3780   1.388       .  A
C3773      C3785   1.404       .  A
C3773      C3781   1.385       .  A
C3774      C3788   1.410       .  A
C3774      C3782   1.388       .  A
C3775      C3783   1.388       .  A
C3775      C3786   1.406       .  A
C3776      C3784   1.385       .  A
C3777      C3778   1.375       .  A
C3777      H3789   1.083       .  S
C3778      H3790   1.082       .  S
C3779      C3780   1.379       .  A
C3779      H3791   1.083       .  S
C3780      H3792   1.082       .  S
C3781      C3782   1.372       .  A
C3781      H3793   1.082       .  S
C3782      H3794   1.082       .  S
C3783      C3784   1.376       .  A
C3783      H3795   1.083       .  S
C3784      H3796   1.082       .  S
C3786      C4043   1.473       .  S
C3787      C4068   1.489       .  S
C3788      C4054   1.472       .  S
N3799      C3804   1.351       .  A
N3799      C3803   1.353       .  A
N3799      H3831   1.041       .  S
N3800      C3807   1.353       .  A
N3800      C3808   1.350       .  A
N3801      C3806   1.354       .  A
N3801      C3805   1.346       .  A
N3801      H3832   1.039       .  S
N3802      C3809   1.343       .  A
N3802      C3810   1.349       .  A
C3803      C3811   1.384       .  A
C3803      C3819   1.406       .  A
C3804      C3820   1.415       .  A
C3804      C3812   1.391       .  A
C3805      C3813   1.387       .  A
C3805      C3822   1.408       .  A
C3806      C3821   1.415       .  A
C3806      C3814   1.386       .  A
C3807      C3819   1.406       .  A
C3807      C3815   1.383       .  A
C3808      C3822   1.415       .  A
C3808      C3816   1.390       .  A
C3809      C3817   1.387       .  A
C3809      C3820   1.403       .  A
C3810      C3818   1.385       .  A
C3810      C3821   1.410       .  A
C3811      C3812   1.375       .  A
C3811      H3823   1.083       .  S
C3812      H3824   1.082       .  S
C3813      C3814   1.378       .  A
C3813      H3825   1.083       .  S
C3814      H3826   1.082       .  S
C3815      C3816   1.373       .  A
C3815      H3827   1.083       .  S
C3816      H3828   1.081       .  S
C3817      C3818   1.376       .  A
C3817      H3829   1.082       .  S
C3818      H3830   1.082       .  S
C3820      C4057   1.472       .  S
C3821      C4026   1.491       .  S
C3822      C4040   1.474       .  S
N3833      C3838   1.356       .  A
N3833      C3837   1.344       .  A
N3833      H3865   1.038   1_545  S
N3834      C3841   1.346       .  A
N3834      C3842   1.350       .  A
N3835      C3840   1.350       .  A
N3835      C3839   1.357       .  A
N3835      H3866   1.042   1_655  S
N3836      C3843   1.351       .  A
N3836      C3844   1.343       .  A
C3837      C3845   1.383       .  A
C3837      C3853   1.401       .  A
C3838      C3846   1.391       .  A
C3839      C3847   1.382       .  A
C3839      C3856   1.411   1_665  A
C3840      C3855   1.417       .  A
C3840      C3848   1.391       .  A
C3841      C3853   1.406       .  A
C3841      C3849   1.389       .  A
C3842      C3850   1.384       .  A
C3843      C3851   1.388       .  A
C3843      C3854   1.417   1_655  A
C3844      C3852   1.387       .  A
C3844      C3855   1.407       .  A
C3845      C3846   1.374       .  A
C3845      H3857   1.083       .  S
C3846      H3858   1.080       .  S
C3847      C3848   1.372       .  A
C3848      H3860   1.082       .  S
C3849      C3850   1.374       .  A
C3849      H3861   1.082       .  S
C3851      C3852   1.372       .  A
C3851      H3863   1.080       .  S
C3852      H3864   1.083       .  S
C3853      C4012   1.462       .  S
C3855      C4001   1.468       .  S
C3856      C4124   1.498       .  S
N3867      C3872   1.353       .  A
N3867      C3871   1.344       .  A
N3867      H3899   1.039       .  S
N3868      C3875   1.345       .  A
N3868      C3876   1.351       .  A
N3869      C3874   1.348       .  A
N3869      C3873   1.356       .  A
N3869      H3900   1.044       .  S
N3870      C3877   1.350       .  A
N3870      C3878   1.340       .  A
C3871      C3879   1.384       .  A
C3871      C3887   1.403       .  A
C3872      C3880   1.391       .  A
C3873      C3881   1.382       .  A
C3873      C3890   1.408   1_655  A
C3874      C3889   1.414       .  A
C3874      C3882   1.391       .  A
C3875      C3887   1.409       .  A
C3875      C3883   1.390       .  A
C3876      C3884   1.383       .  A
C3877      C3885   1.389       .  A
C3877      C3888   1.417       .  A
C3878      C3886   1.387       .  A
C3878      C3889   1.402       .  A
C3879      C3880   1.374       .  A
C3879      H3891   1.083       .  S
C3880      H3892   1.080       .  S
C3881      C3882   1.375       .  A
C3881      H3893   1.082       .  S
C3882      H3894   1.082       .  S
C3883      C3884   1.373       .  A
C3883      H3895   1.082       .  S
C3884      H3896   1.082       .  S
C3885      C3886   1.373       .  A
C3885      H3897   1.080       .  S
C3886      H3898   1.083       .  S
C3887      C3984   1.462       .  S
C3889      C3970   1.464       .  S
C3890      C4085   1.507       .  S
N3901      C3906   1.343       .  A
N3901      C3905   1.357       .  A
N3901      H3933   1.036   1_545  S
N3902      C3909   1.352       .  A
N3902      C3910   1.342       .  A
N3903      C3907   1.348       .  A
N3903      H3934   1.040       .  S
N3904      C3911   1.345       .  A
C3905      C3913   1.390       .  A
C3905      C3921   1.420   1_545  A
C3906      C3922   1.405       .  A
C3906      C3914   1.385       .  A
C3907      C3924   1.416       .  A
C3908      C3923   1.406       .  A
C3908      C3916   1.382       .  A
C3909      C3921   1.415       .  A
C3909      C3917   1.387       .  A
C3910      C3924   1.408       .  A
C3910      C3918   1.388       .  A
C3911      C3922   1.411       .  A
C3912      C3920   1.381       .  A
C3912      C3923   1.403       .  A
C3913      C3914   1.375       .  A
C3913      H3925   1.080       .  S
C3914      H3926   1.083       .  S
C3915      C3916   1.373       .  A
C3915      H3927   1.082       .  S
C3916      H3928   1.082       .  S
C3917      C3918   1.373       .  A
C3917      H3929   1.081       .  S
C3918      H3930   1.083       .  S
C3919      C3920   1.369       .  A
C3919      H3931   1.081       .  S
C3920      H3932   1.083       .  S
C3922      C4015   1.457       .  S
C3923      C4071   1.485       .  S
C3924      C3998   1.465       .  S
N3935      C3940   1.344       .  A
N3935      C3939   1.357       .  A
N3935      H3967   1.037       .  S
N3936      C3943   1.354       .  A
N3936      C3944   1.343       .  A
N3937      C3942   1.358       .  A
N3937      C3941   1.349       .  A
N3937      H3968   1.040       .  S
N3938      C3945   1.346       .  A
N3938      C3946   1.352       .  A
C3939      C3947   1.392       .  A
C3939      C3955   1.424       .  A
C3940      C3956   1.401       .  A
C3940      C3948   1.383       .  A
C3941      C3949   1.393       .  A
C3941      C3958   1.419       .  A
C3942      C3957   1.409       .  A
C3942      C3950   1.381       .  A
C3943      C3955   1.421       .  A
C3943      C3951   1.387       .  A
C3944      C3958   1.410       .  A
C3944      C3952   1.388       .  A
C3945      C3953   1.389       .  A
C3945      C3956   1.409       .  A
C3946      C3954   1.382       .  A
C3946      C3957   1.403       .  A
C3947      C3948   1.372       .  A
C3947      H3959   1.078       .  S
C3948      H3960   1.083       .  S
C3949      C3950   1.373       .  A
C3949      H3961   1.082       .  S
C3950      H3962   1.083       .  S
C3951      C3952   1.378       .  A
C3951      H3963   1.081       .  S
C3952      H3964   1.083       .  S
C3953      C3954   1.371       .  A
C3953      H3965   1.082       .  S
C3954      H3966   1.082       .  S
C3956      C3987   1.462       .  S
C3957      C4029   1.491       .  S
C3958      C3973   1.468       .  S
C3969      C3970   1.397       .  A
C3969      C3974   1.382       .  A
C3969      H3976   1.085       .  S
C3970      C3971   1.404       .  A
C3971      C3972   1.397       .  A
C3971      N3978   1.430       .  S
C3972      C3973   1.402       .  A
C3972      H3977   1.081       .  S
C3973      C3974   1.412       .  A
C3974      N3975   1.434       .  S
N3975      H3979   1.042       .  S
N3975      H3980   1.048       .  S
N3978      H3981   1.045       .  S
N3978      H3982   1.045       .  S
C3983      C3984   1.402       .  A
C3983      C3988   1.395       .  A
C3983      H3990   1.084       .  S
C3984      C3985   1.409       .  A
C3985      C3986   1.382       .  A
C3985      N3992   1.434       .  S
C3986      C3987   1.399       .  A
C3986      H3991   1.085       .  S
C3987      C3988   1.405       .  A
C3988      N3989   1.429       .  S
N3989      H3993   1.044       .  S
N3989      H3994   1.046       .  S
N3992      H3995   1.046       .  S
N3992      H3996   1.044       .  S
C3997      C4002   1.385       .  A
C3997      H4004   1.085       .  S
C3998      C3999   1.407       .  A
C3999      C4000   1.397       .  A
C3999      N4006   1.430       .  S
C4000      C4001   1.401       .  A
C4000      H4005   1.083       .  S
C4002      N4003   1.434       .  S
N4003      H4007   1.045       .  S
N4003      H4008   1.046       .  S
N4006      H4009   1.044       .  S
N4006      H4010   1.045       .  S
C4011      C4016   1.401       .  A
C4011      H4018   1.084       .  S
C4012      C4013   1.411       .  A
C4013      C4014   1.388       .  A
C4013      N4020   1.439   1_545  S
C4014      C4015   1.394       .  A
C4014      H4019   1.085   1_545  S
C4016      N4017   1.429       .  S
N4017      H4021   1.045       .  S
N4017      H4022   1.042       .  S
N4020      H4023   1.045       .  S
N4020      H4024   1.046       .  S
C4025      C4026   1.403       .  A
C4025      C4030   1.404       .  A
C4025      H4032   1.084       .  S
C4026      C4027   1.410       .  A
C4027      C4028   1.408       .  A
C4027      N4034   1.438       .  S
C4028      C4029   1.403       .  A
C4028      H4033   1.084       .  S
C4029      C4030   1.419       .  A
C4030      N4031   1.439       .  S
N4031      H4035   1.045       .  S
N4031      H4036   1.043       .  S
N4034      H4037   1.046       .  S
N4034      H4038   1.046       .  S
C4039      C4040   1.399       .  A
C4039      C4044   1.388       .  A
C4039      H4046   1.085       .  S
C4040      C4041   1.407       .  A
C4041      C4042   1.404       .  A
C4041      N4048   1.431       .  S
C4042      C4043   1.403       .  A
C4042      H4047   1.083       .  S
C4043      C4044   1.407       .  A
C4044      N4045   1.434       .  S
N4045      H4049   1.046       .  S
N4045      H4050   1.046       .  S
N4048      H4051   1.046       .  S
N4048      H4052   1.045       .  S
C4053      C4054   1.399       .  A
C4053      C4058   1.383       .  A
C4053      H4060   1.085       .  S
C4054      C4055   1.414       .  A
C4055      C4056   1.403       .  A
C4055      N4062   1.437       .  S
C4056      C4057   1.403       .  A
C4056      H4061   1.084       .  S
C4057      C4058   1.411       .  A
C4058      N4059   1.434       .  S
N4059      H4063   1.046       .  S
N4059      H4064   1.044       .  S
N4062      H4065   1.044       .  S
N4062      H4066   1.045       .  S
C4067      C4072   1.404       .  A
C4067      H4074   1.084       .  S
C4068      C4069   1.413       .  A
C4069      C4070   1.406       .  A
C4069      N4076   1.438       .  S
C4070      C4071   1.402       .  A
C4070      H4075   1.084       .  S
C4072      N4073   1.438       .  S
N4073      H4077   1.046       .  S
N4073      H4078   1.043       .  S
N4076      H4079   1.044       .  S
N4076      H4080   1.045       .  S
C4081      C4082   1.405       .  A
C4081      C4086   1.407   1_455  A
C4081      H4088   1.084   1_455  S
C4083      C4084   1.406       .  A
C4083      N4090   1.437       .  S
C4084      H4089   1.084       .  S
C4085      C4086   1.422   1_455  A
C4086      N4087   1.433       .  S
N4087      H4091   1.043       .  S
N4087      H4092   1.045   1_655  S
N4090      H4093   1.045       .  S
N4090      H4094   1.046       .  S
C4095      C4100   1.403       .  A
C4095      H4102   1.084       .  S
C4096      C4097   1.408       .  A
C4097      C4098   1.390       .  A
C4097      N4104   1.434       .  S
C4098      C4099   1.399       .  A
C4098      H4103   1.085       .  S
C4100      N4101   1.437       .  S
N4101      H4105   1.045       .  S
N4101      H4106   1.044       .  S
N4104      H4107   1.046       .  S
N4104      H4108   1.045   1_455  S
C4109      C4110   1.406       .  A
C4109      C4114   1.404       .  A
C4109      H4116   1.083       .  S
C4111      C4112   1.387       .  A
C4111      N4118   1.434       .  S
C4112      H4117   1.085       .  S
C4113      C4114   1.411       .  A
C4114      N4115   1.432       .  S
N4115      H4119   1.044       .  S
N4115      H4120   1.046       .  S
N4118      H4121   1.045       .  S
N4118      H4122   1.044       .  S
C4123      C4124   1.405   1_565  A
C4123      C4128   1.398       .  A
C4123      H4130   1.084       .  S
C4125      C4126   1.404       .  A
C4125      N4132   1.433       .  S
C4126      H4131   1.084       .  S
C4127      C4128   1.416   1_545  A
C4128      N4129   1.434   1_455  S
N4129      H4133   1.042   1_655  S
N4129      H4134   1.046       .  S
N4132      H4135   1.045       .  S
N4132      H4136   1.043       .  S
C4137      C4138   1.411       .  A
C4137      C4142   1.418       .  A
C4137      H4144   1.083       .  S
C4138      C4139   1.423       .  A
C4139      C4140   1.426       .  A
C4139      N4146   1.437       .  S
C4140      C4141   1.412       .  A
C4140      H4145   1.083       .  S
C4141      C4142   1.418       .  A
C4142      N4143   1.432       .  S
N4143      H4147   1.046       .  S
N4143      H4148   1.046       .  S
N4146      H4149   1.046       .  S
N4146      H4150   1.046       .  S
C4151      C4152   1.412       .  A
C4151      C4156   1.423       .  A
C4151      H4158   1.083       .  S
C4152      C4153   1.422       .  A
C4153      C4154   1.426       .  A
C4153      N4160   1.437       .  S
C4154      C4155   1.412       .  A
C4154      H4159   1.083       .  S
C4155      C4156   1.422       .  A
C4156      N4157   1.437       .  S
N4157      H4161   1.045       .  S
N4157      H4162   1.046       .  S
N4160      H4163   1.045       .  S
N4160      H4164   1.046       .  S
C4165      C4166   1.414       .  A
C4165      C4170   1.424       .  A
C4166      C4167   1.418       .  A
C4167      C4168   1.422       .  A
C4167      N4174   1.431       .  S
C4168      C4169   1.414       .  A
C4168      H4173   1.083       .  S
C4169      C4170   1.419       .  A
N4171      H4175   1.046       .  S
N4171      H4176   1.046       .  S
N4174      H4177   1.045       .  S
N4174      H4178   1.046       .  S
C4179      C4180   1.410       .  A
C4179      C4184   1.420       .  A
C4179      H4186   1.083       .  S
C4180      C4181   1.421       .  A
C4181      C4182   1.423       .  A
C4182      C4183   1.412       .  A
C4183      C4184   1.421       .  A
C4184      N4185   1.432       .  S
N4185      H4189   1.046       .  S
N4185      H4190   1.045       .  S
N4188      H4191   1.046       .  S
N4188      H4192   1.045       .  S
C4193      C4194   1.411       .  A
C4193      C4198   1.418       .  A
C4193      H4200   1.083       .  S
C4194      C4195   1.418       .  A
C4195      C4196   1.421       .  A
C4195      N4202   1.431       .  S
C4196      C4197   1.412       .  A
C4196      H4201   1.083       .  S
C4197      C4198   1.418       .  A
C4198      N4199   1.432       .  S
N4199      H4203   1.046       .  S
N4199      H4204   1.045       .  S
N4202      H4205   1.046       .  S
N4202      H4206   1.046       .  S
C4207      C4208   1.413       .  A
C4207      C4212   1.426       .  A
C4207      H4214   1.083       .  S
C4208      C4209   1.422       .  A
C4209      C4210   1.428       .  A
C4209      N4216   1.437       .  S
C4210      C4211   1.413       .  A
C4210      H4215   1.083       .  S
C4211      C4212   1.422       .  A
C4212      N4213   1.437       .  S
N4213      H4217   1.045       .  S
N4213      H4218   1.046       .  S
N4216      H4219   1.046       .  S
N4216      H4220   1.045       .  S
C4221      C4222   1.413       .  A
C4221      C4226   1.424       .  A
C4221      H4228   1.083       .  S
C4223      C4224   1.424       .  A
C4223      N4230   1.437       .  S
C4224      H4229   1.083       .  S
C4225      C4226   1.419       .  A
C4226      N4227   1.432       .  S
N4227      H4231   1.045       .  S
N4227      H4232   1.046       .  S
N4230      H4233   1.045       .  S
N4230      H4234   1.046       .  S
C4235      C4240   1.425       .  A
C4235      H4242   1.083       .  S
C4236      C4237   1.421       .  A
C4237      C4238   1.424       .  A
C4237      N4244   1.431       .  S
C4238      C4239   1.413       .  A
C4238      H4243   1.083       .  S
C4240      N4241   1.432       .  S
N4241      H4245   1.046       .  S
N4241      H4246   1.045       .  S
N4244      H4247   1.045       .  S
N4244      H4248   1.046       .  S
C4249      C4250   1.404       .  A
C4249      C4254   1.405       .  A
C4249      H4256   1.080       .  S
C4250      C4251   1.406       .  A
C4251      C4252   1.388       .  A
C4251      N4258   1.434       .  S
C4252      C4253   1.398       .  A
C4252      H4257   1.085       .  S
C4253      C4254   1.404       .  A
C4254      N4255   1.431       .  S
N4255      H4259   1.045       .  S
N4255      H4260   1.046       .  S
N4258      H4261   1.045       .  S
N4258      H4262   1.046       .  S
C4263      C4264   1.403       .  A
C4263      C4268   1.408       .  A
C4263      H4270   1.083       .  S
C4264      C4265   1.404       .  A
C4265      C4266   1.389       .  A
C4265      N4272   1.433       .  S
C4266      C4267   1.399       .  A
C4266      H4271   1.085       .  S
C4267      C4268   1.408       .  A
C4268      N4269   1.434       .  S
N4269      H4273   1.045       .  S
N4269      H4274   1.044       .  S
N4272      H4275   1.046       .  S
N4272      H4276   1.046       .  S
C4277      C4278   1.399       .  A
C4277      C4282   1.386       .  A
C4277      H4284   1.085       .  S
C4279      C4280   1.405       .  A
C4279      N4286   1.431       .  S
C4280      C4281   1.404       .  A
C4280      H4285   1.082       .  S
C4282      N4283   1.434       .  S
N4283      H4287   1.045       .  S
N4283      H4288   1.047       .  S
N4286      H4289   1.044       .  S
N4286      H4290   1.046       .  S
C4291      C4292   1.399       .  A
C4291      C4296   1.387       .  A
C4291      H4298   1.085       .  S
C4293      C4294   1.400       .  A
C4293      N4300   1.437       .  S
C4294      C4295   1.402       .  A
C4294      H4299   1.083       .  S
C4296      N4297   1.434   1_545  S
N4297      H4301   1.046       .  S
N4297      H4302   1.045       .  S
N4300      H4303   1.044       .  S
N4300      H4304   1.045       .  S
C4305      C4306   1.402       .  A
C4305      C4310   1.399       .  A
C4305      H4312   1.084       .  S
C4306      C4307   1.416       .  A
C4307      C4308   1.401       .  A
C4307      N4314   1.439       .  S
C4308      C4309   1.402       .  A
C4308      H4313   1.084       .  S
C4309      C4310   1.415       .  A
C4310      N4311   1.438       .  S
N4311      H4315   1.046       .  S
N4311      H4316   1.043       .  S
N4314      H4317   1.044       .  S
N4314      H4318   1.045       .  S
C4319      C4320   1.405       .  A
C4319      C4324   1.401       .  A
C4319      H4326   1.083       .  S
C4320      C4321   1.413       .  A
C4321      C4322   1.383       .  A
C4321      N4328   1.434       .  S
C4322      C4323   1.398       .  A
C4322      H4327   1.085       .  S
C4323      C4324   1.409       .  A
C4324      N4325   1.431       .  S
N4325      H4329   1.045       .  S
N4325      H4330   1.045       .  S
N4328      H4331   1.044       .  S
N4328      H4332   1.045       .  S
C4333      C4334   1.398       .  A
C4333      C4338   1.385       .  A
C4333      H4340   1.085       .  S
C4334      C4335   1.411       .  A
C4335      C4336   1.407       .  A
C4335      N4342   1.437       .  S
C4336      C4337   1.402       .  A
C4336      H4341   1.083       .  S
C4337      C4338   1.406       .  A
C4338      N4339   1.434       .  S
N4339      H4343   1.046       .  S
N4339      H4344   1.045       .  S
N4342      H4345   1.044       .  S
N4342      H4346   1.046       .  S
C4347      C4348   1.401   1_565  A
C4347      C4352   1.402       .  A
C4347      H4354   1.084       .  S
C4349      C4350   1.403       .  A
C4349      N4356   1.438       .  S
C4350      H4355   1.084       .  S
C4351      C4352   1.418       .  A
C4352      N4353   1.439       .  S
N4353      H4357   1.046       .  S
N4353      H4358   1.043       .  S
N4356      H4359   1.043       .  S
N4356      H4360   1.045       .  S
C4361      C4362   1.401       .  A
C4361      C4366   1.401       .  A
C4361      H4368   1.084       .  S
C4363      C4364   1.398       .  A
C4363      N4370   1.432       .  S
C4364      H4369   1.084       .  S
C4365      C4366   1.405       .  A
C4366      N4367   1.432       .  S
N4367      H4371   1.046       .  S
N4367      H4372   1.045       .  S
N4370      H4373   1.046       .  S
N4370      H4374   1.045       .  S
C4375      C4376   1.405       .  A
C4375      C4380   1.406       .  A
C4375      H4382   1.083       .  S
C4377      C4378   1.388       .  A
C4377      N4384   1.434       .  S
C4378      H4383   1.085       .  S
C4379      C4380   1.406       .  A
C4380      N4381   1.436       .  S
N4381      H4385   1.045       .  S
N4381      H4386   1.045       .  S
N4384      H4387   1.046       .  S
N4384      H4388   1.045       .  S
C4389      C4390   1.399       .  A
C4389      C4394   1.386       .  A
C4389      H4396   1.085   1_455  S
C4391      C4392   1.405       .  A
C4391      N4398   1.437       .  S
C4392      H4397   1.083       .  S
C4393      C4394   1.412       .  A
C4394      N4395   1.434   1_455  S
N4395      H4399   1.045   1_655  S
N4395      H4400   1.045       .  S
N4398      H4401   1.044       .  S
N4398      H4402   1.045       .  S
C4404      C4405   1.405   1_455  A
C4405      C4406   1.403       .  A
C4405      N4412   1.432       .  S
C4406      C4407   1.405   1_655  A
C4406      H4411   1.084       .  S
C4408      N4409   1.432       .  S
N4409      H4413   1.045       .  S
N4409      H4414   1.045       .  S
N4412      H4415   1.045       .  S
N4412      H4416   1.046       .  S
