geometry optimzed in LAMMPS
_audit_creation_date              2020-11-30 
_audit_creation_method            'lammps2cif' 
_symmetry_space_group_name_H-M    'P1' 
_symmetry_Int_Tables_number       1 
_symmetry_cell_setting            triclinic 
loop_ 
_symmetry_equiv_pos_as_xyz 
  x,y,z 
_cell_length_a                    39.993895 
_cell_length_b                    40.07611496729888 
_cell_length_c                    40.06943954215374 
_cell_angle_alpha                 89.66852314235459 
_cell_angle_beta                  90.24164955405205 
_cell_angle_gamma                 89.96481333313976 
loop_ 
_atom_site_label 
_atom_site_type_symbol 
_atom_site_fract_x 
_atom_site_fract_y 
_atom_site_fract_z 
_atom_site_charge 
O1          O  0.88806327  0.80918282  0.46446991    -0.57500
C2          C  0.88366606  0.79815899  0.36071164     0.75100
O3          O  0.78974403  0.78791634  0.41911864    -0.58600
C4          C  0.86715577  0.80588414  0.48798738     0.75100
C5          C  0.83167028  0.88505507  0.41008442     0.77500
Cd6        Cd  0.84585212  0.81484194  0.41967439     1.37500
O7          O  0.89755951  0.79875986  0.38922798    -0.57500
O8          O  0.85849901  0.87476703  0.42339655    -0.56300
C9          C  0.80147877  0.75849634  0.41731373     0.77500
O10         O  0.81027305  0.86299994  0.40257178    -0.58700
O11         O  0.85333879  0.80696608  0.35964114    -0.57100
O12         O  0.83659716  0.80795617  0.47991916    -0.57100
O13         O  0.83294334  0.75607254  0.41670212    -0.56300
O14         O  0.07647039  0.11958106  0.32283992    -0.57500
C15         C  0.17726151  0.12633291  0.30816146     0.75100
O16         O  0.11959665  0.22003395  0.31496652    -0.58600
C17         C  0.05282277  0.13721294  0.33413617     0.75100
C18         C  0.13370357  0.16312656  0.40553625     0.77500
Cd19       Cd  0.12032031  0.16064306  0.33487736     1.37500
O20         O  0.14849579  0.11318554  0.30814345    -0.57500
O21         O  0.12250594  0.13741848  0.39114392    -0.56300
C22         C  0.11468529  0.21214427  0.28467692     0.77500
O23         O  0.13916345  0.18834830  0.38706300    -0.58700
O24         O  0.17986945  0.15413680  0.32275540    -0.57100
O25         O  0.06064697  0.16526928  0.34629185    -0.57100
O26         O  0.11168056  0.18141186  0.27892833    -0.56300
O27         O  0.12219749  0.18270886  0.64783167    -0.57500
C28         C  0.15453632  0.15854310  0.54834879     0.75100
O29         O  0.22681811  0.17870510  0.62790639    -0.58600
C30         C  0.13451093  0.17782083  0.67670526     0.75100
C31         C  0.17813237  0.08712625  0.63208670     0.77500
Cd32       Cd  0.17031090  0.15703014  0.61826504     1.37500
O33         O  0.13137488  0.15931783  0.56990655    -0.57500
O34         O  0.15006480  0.10047311  0.62619039    -0.56300
C35         C  0.21927725  0.20895952  0.62201396     0.77500
O36         O  0.20343535  0.10609455  0.62985258    -0.58700
O37         O  0.18417416  0.15675930  0.55929981    -0.57100
O38         O  0.16195093  0.16219118  0.67778575    -0.57100
O39         O  0.18926052  0.21478686  0.61379211    -0.56300
O40         O  0.83150186  0.04664016  0.38172734    -0.57500
C41         C  0.82099440  0.14698308  0.36612875     0.75100
O42         O  0.89718213  0.09576047  0.30658106    -0.58600
C43         C  0.83484097  0.02087980  0.36388453     0.75100
C44         C  0.79281579  0.08406560  0.28372290     0.77500
Cd45       Cd  0.84288621  0.08631196  0.33561732     1.37500
O46         O  0.81688800  0.11883049  0.37995832    -0.57500
O47         O  0.78630094  0.08399141  0.31451352    -0.56300
C48         C  0.91378397  0.09800137  0.33355025     0.77500
O49         O  0.82356620  0.08529641  0.27599538    -0.58700
O50         O  0.83647263  0.14691769  0.33864072    -0.57100
O51         O  0.84335330  0.02563152  0.33384423    -0.57100
O52         O  0.89786974  0.09257041  0.36016911    -0.56300
O53         O  0.20942078  0.92745072  0.65782814    -0.57500
C54         C  0.22522684  0.82659694  0.66208596     0.75100
O55         O  0.21928413  0.86937102  0.75599934    -0.58600
C56         C  0.19333710  0.94943500  0.67369175     0.75100
C57         C  0.12929271  0.86222976  0.70275174     0.77500
Cd58       Cd  0.19872433  0.88208333  0.69860562     1.37500
O59         O  0.22907268  0.85614257  0.65125258    -0.57500
O60         O  0.14591027  0.86156336  0.67597871    -0.56300
C61         C  0.24852585  0.88057044  0.75156491     0.77500
O62         O  0.14456196  0.87327776  0.72824957    -0.58700
O63         O  0.20856506  0.82332198  0.68859601    -0.57100
O64         O  0.17969122  0.94012381  0.70062261    -0.57100
O65         O  0.25334343  0.89521756  0.72400266    -0.56300
O66         O  0.96577736  0.84338641  0.71208344    -0.57500
C67         C  0.86155742  0.83670339  0.72239098     0.75100
O68         O  0.90238963  0.77336019  0.64609792    -0.58600
C69         C  0.98919743  0.82443406  0.70246264     0.75100
C70         C  0.92481813  0.75169410  0.74690952     0.77500
Cd71       Cd  0.92034423  0.80343292  0.69739847     1.37500
O72         O  0.88947765  0.85166796  0.72103672    -0.57500
O73         O  0.92652955  0.78239520  0.75347849    -0.56300
C74         C  0.90691489  0.79796698  0.62661983     0.77500
O75         O  0.92090758  0.74412465  0.71642255    -0.58700
O76         O  0.86081944  0.80762672  0.71041424    -0.57100
O77         O  0.98041470  0.79686705  0.68988662    -0.57100
O78         O  0.91782428  0.82447853  0.63978178    -0.56300
O79         O  0.64377260  0.16476190  0.94589094    -0.57500
C80         C  0.65628037  0.18590889  0.84614770     0.75100
O81         O  0.74523669  0.18022107  0.89176415    -0.58600
C82         C  0.66366789  0.16311846  0.97054156     0.75100
C83         C  0.69212291  0.08876355  0.89433286     0.77500
Cd84       Cd  0.68838867  0.15983917  0.90432726     1.37500
O85         O  0.64280346  0.18865974  0.87456754    -0.57500
O86         O  0.66545283  0.10527639  0.89061826    -0.56300
C87         C  0.73954535  0.21006982  0.90052511     0.77500
O88         O  0.71778235  0.10524949  0.90304532    -0.58700
O89         O  0.68301125  0.16908863  0.84499231    -0.57100
O90         O  0.69443502  0.15946197  0.96430244    -0.57100
O91         O  0.71160488  0.21563113  0.91405886    -0.56300
O92         O  0.73083638  0.84950213  0.90858788    -0.57500
C93         C  0.69820653  0.94564657  0.87511284     0.75100
O94         O  0.72214297  0.86577892  0.80172702    -0.58600
C95         C  0.72876366  0.82039465  0.89631101     0.75100
C96         C  0.63304159  0.85665670  0.85729367     0.77500
Cd97       Cd  0.70223775  0.87581525  0.85958656     1.37500
O98         O  0.71025408  0.92490576  0.89595373    -0.57500
O99         O  0.64908263  0.85854531  0.88450882    -0.56300
C100        C  0.75230471  0.87353901  0.80788693     0.77500
O101        O  0.64898601  0.86392324  0.83092788    -0.58700
O102        O  0.68739213  0.93371289  0.84798103    -0.57100
O103        O  0.71394681  0.81790523  0.86854148    -0.57100
O104        O  0.75829512  0.88339820  0.83717418    -0.56300
O105        O  0.32911399  0.04586961  0.13463574    -0.57500
C106        C  0.31653792  0.15153258  0.14709545     0.75100
O107        O  0.32048110  0.09204478  0.23494121    -0.58600
C108        C  0.33337403  0.02231540  0.15556214     0.75100
C109        C  0.41036765  0.09769519  0.18112938     0.77500
Cd110      Cd  0.33922904  0.08986570  0.17641103     1.37500
O111        O  0.31275217  0.12405913  0.13198741    -0.57500
O112        O  0.39633547  0.08861385  0.15429988    -0.56300
C113        C  0.28967464  0.08953173  0.22770958     0.77500
O114        O  0.39149734  0.10216915  0.20603525    -0.58700
O115        O  0.33316484  0.15024428  0.17396932    -0.57100
O116        O  0.34037186  0.03053959  0.18523403    -0.57100
O117        O  0.28263663  0.08501534  0.19726467    -0.56300
O118        O  0.57547700  0.10355558  0.18225533    -0.57500
C119        C  0.68007560  0.11242076  0.20023755     0.75100
O120        O  0.63014947  0.18097158  0.12868150    -0.58600
C121        C  0.55194401  0.12468533  0.18004016     0.75100
C122        C  0.62073758  0.19741543  0.22863465     0.77500
Cd123      Cd  0.62026364  0.14645669  0.17849778     1.37500
O124        O  0.65157111  0.09890181  0.20334090    -0.57500
O125        O  0.61392393  0.16728335  0.23528598    -0.56300
C126        C  0.62838317  0.15678766  0.10854642     0.77500
O127        O  0.62656154  0.20433526  0.19829436    -0.58700
O128        O  0.68066770  0.14022225  0.18527324    -0.57100
O129        O  0.56028230  0.15499880  0.17724457    -0.57100
O130        O  0.62309240  0.12822593  0.12096766    -0.56300
O131        O  0.39700780  0.78842221  0.16087417    -0.57500
C132        C  0.37442258  0.80128296  0.06210016     0.75100
O133        O  0.28993439  0.79399478  0.13248094    -0.58600
C134        C  0.38435618  0.79351522  0.18926219     0.75100
C135        C  0.33608520  0.88130456  0.13159208     0.77500
Cd136      Cd  0.34881301  0.81092742  0.12818806     1.37500
O137        O  0.39374121  0.80398386  0.08707462    -0.57500
O138        O  0.36270178  0.86999632  0.11903421    -0.56300
C139        C  0.29595030  0.76306715  0.13054844     0.77500
O140        O  0.31471152  0.86011219  0.14108129    -0.58700
O141        O  0.34335755  0.80274391  0.06789578    -0.57100
O142        O  0.35655138  0.80845575  0.18908800    -0.57100
O143        O  0.32604903  0.75461888  0.12600022    -0.56300
O144        O  0.39516897  0.85176134  0.82231657    -0.57500
C145        C  0.49228255  0.82375706  0.85347005     0.75100
O146        O  0.41004295  0.77236769  0.90412265    -0.58600
C147        C  0.36565109  0.84166536  0.82766545     0.75100
C148        C  0.41983394  0.75245648  0.80485074     0.77500
Cd149      Cd  0.42295390  0.80482070  0.85342261     1.37500
O150        O  0.46949476  0.84480389  0.84670315    -0.57500
O151        O  0.43389930  0.78011879  0.79928835    -0.56300
C152        C  0.41215918  0.79687144  0.92382945     0.77500
O153        O  0.40880071  0.74799393  0.83414264    -0.58700
O154        O  0.48280126  0.79437350  0.86028679    -0.57100
O155        O  0.36323083  0.81650414  0.84663806    -0.57100
O156        O  0.42012255  0.82470812  0.91106125    -0.56300
O157        O  0.90766166  0.67702071  0.88967916    -0.57500
C158        C  0.87927346  0.65467130  0.98900341     0.75100
O159        O  0.80104139  0.67733177  0.92375342    -0.58600
C160        C  0.89456069  0.67324498  0.86102177     0.75100
C161        C  0.84495892  0.58628150  0.90418084     0.77500
Cd162      Cd  0.85842703  0.65449777  0.92033522     1.37500
O163        O  0.90021813  0.66077883  0.96603003    -0.57500
O164        O  0.87076833  0.59453498  0.92060418    -0.56300
C165        C  0.81043234  0.70753680  0.92428118     0.77500
O166        O  0.82442900  0.60933677  0.89710266    -0.58700
O167        O  0.84978786  0.64782753  0.97981795    -0.57100
O168        O  0.86612829  0.65964928  0.86039106    -0.57100
O169        O  0.84153063  0.71261356  0.92249263    -0.56300
O170        O  0.96236084  0.62734319  0.22311113    -0.57500
C171        C  0.85916833  0.63490720  0.22331963     0.75100
O172        O  0.91495207  0.72635330  0.21908697    -0.58600
C173        C  0.98557095  0.63892748  0.20504087     0.75100
C174        C  0.90801854  0.66640289  0.13023203     0.77500
Cd175      Cd  0.91968110  0.66665801  0.20131987     1.37500
O176        O  0.88663684  0.61911943  0.22227344    -0.57500
O177        O  0.90556237  0.64068579  0.14849577    -0.56300
C178        C  0.92352602  0.72045443  0.24911750     0.77500
O179        O  0.91572539  0.69333476  0.14494811    -0.58700
O180        O  0.85997676  0.66505181  0.21386231    -0.57100
O181        O  0.97813266  0.66279814  0.18559992    -0.57100
O182        O  0.93166275  0.69070211  0.25569501    -0.56300
O183        O  0.83288846  0.42494906  0.87609440    -0.57500
C184        C  0.81563694  0.32653171  0.86337558     0.75100
O185        O  0.82613010  0.36926190  0.77278609    -0.58600
C186        C  0.83632603  0.45071006  0.85800231     0.75100
C187        C  0.91279692  0.37904319  0.82928718     0.77500
Cd188      Cd  0.84102584  0.38531469  0.83042123     1.37500
O189        O  0.80758733  0.35538090  0.87331862    -0.57500
O190        O  0.89492803  0.37348385  0.85465885    -0.56300
C191        C  0.79622996  0.37954548  0.77469919     0.77500
O192        O  0.89724834  0.38804320  0.80310823    -0.58700
O193        O  0.83658063  0.32540389  0.83984714    -0.57100
O194        O  0.84063970  0.44594897  0.82710615    -0.57100
O195        O  0.78838080  0.39515893  0.80083622    -0.56300
O196        O  0.14515962  0.30465156  0.07082725    -0.57500
C197        C  0.14569728  0.29558882  0.17352065     0.75100
O198        O  0.24290640  0.29828062  0.12561885    -0.58600
C199        C  0.16567325  0.31192298  0.04789106     0.75100
C200        C  0.19321604  0.38741194  0.13108233     0.77500
Cd201      Cd  0.18431045  0.31743389  0.11722576     1.37500
O202        O  0.13437151  0.29243933  0.14411744    -0.57500
O203        O  0.16728460  0.37695622  0.11619046    -0.56300
C204        C  0.23609664  0.26774387  0.12137228     0.77500
O205        O  0.21539889  0.36593788  0.13804051    -0.58700
O206        O  0.17316362  0.31073324  0.17637431    -0.57100
O207        O  0.19400789  0.32262157  0.05721892    -0.57100
O208        O  0.20612978  0.26087809  0.11416863    -0.56300
O209        O  0.20306402  0.54827193  0.15709425    -0.57500
C210        C  0.21579300  0.65076311  0.16523288     0.75100
O211        O  0.14366711  0.60124270  0.23311728    -0.58600
C212        C  0.19859311  0.52372671  0.17665940     0.75100
C213        C  0.24595043  0.59237807  0.25071999     0.77500
Cd214      Cd  0.19518921  0.59134200  0.20018650     1.37500
O215        O  0.22097746  0.62207003  0.15324992    -0.57500
O216        O  0.25200656  0.58681989  0.22036062    -0.56300
C217        C  0.12471560  0.60170489  0.20770110     0.77500
O218        O  0.21554221  0.59695612  0.25830130    -0.58700
O219        O  0.19945940  0.65157220  0.19216472    -0.57100
O220        O  0.19213709  0.53071587  0.20669927    -0.57100
O221        O  0.13872097  0.59653585  0.17994815    -0.56300
O222        O  0.15091031  0.35486414  0.81024803    -0.57500
C223        C  0.05197243  0.34116104  0.83634997     0.75100
O224        O  0.12046384  0.25072041  0.82105472    -0.58600
C225        C  0.17808047  0.33865779  0.81180473     0.75100
C226        C  0.13232226  0.30807799  0.90716833     0.77500
Cd227      Cd  0.11684209  0.31048889  0.83704184     1.37500
O228        O  0.07554526  0.35364097  0.81931017    -0.57500
O229        O  0.13290333  0.33467463  0.89006232    -0.56300
C230        C  0.10867493  0.25513215  0.79198376     0.77500
O231        O  0.12298946  0.28192091  0.89206826    -0.58700
O232        O  0.05894482  0.31527990  0.85319526    -0.57100
O233        O  0.17642566  0.31010060  0.82524918    -0.57100
O234        O  0.09926839  0.28446941  0.78503150    -0.56300
O235        O  0.30890403  0.34534953  0.63676938    -0.57500
C236        C  0.33249260  0.44481913  0.66457182     0.75100
O237        O  0.32485509  0.36673838  0.74121417    -0.58600
C238        C  0.30833536  0.31797823  0.65288245     0.75100
C239        C  0.41088633  0.36300861  0.68428933     0.77500
Cd240      Cd  0.33959465  0.37551513  0.68218266     1.37500
O241        O  0.32963521  0.42227340  0.64259586    -0.57500
O242        O  0.39604039  0.37234185  0.65787806    -0.56300
C243        C  0.29418505  0.37348600  0.73647254     0.77500
O244        O  0.39279326  0.35921584  0.70988431    -0.58700
O245        O  0.33974187  0.43507330  0.69381878    -0.57100
O246        O  0.32415286  0.31759695  0.68011370    -0.57100
O247        O  0.28580345  0.38387033  0.70778816    -0.56300
O248        O  0.57495119  0.35230264  0.67765839    -0.57500
C249        C  0.68193525  0.34248983  0.69635922     0.75100
O250        O  0.62601575  0.25320799  0.69851324    -0.58600
C251        C  0.55193562  0.33083231  0.68153591     0.75100
C252        C  0.62855642  0.29916857  0.60604902     0.77500
Cd253      Cd  0.62082509  0.31031019  0.67609651     1.37500
O254        O  0.65406485  0.35710661  0.70020563    -0.57500
O255        O  0.62225220  0.32753198  0.61816939    -0.56300
C256        C  0.62427595  0.26243255  0.72870592     0.77500
O257        O  0.63117886  0.27509739  0.62656725    -0.58700
O258        O  0.68109709  0.31503773  0.68104745    -0.57100
O259        O  0.56096649  0.30059132  0.68219717    -0.57100
O260        O  0.61936625  0.29317916  0.73376932    -0.56300
O261        O  0.64077393  0.27529342  0.36894041    -0.57500
C262        C  0.66307690  0.29616371  0.46711045     0.75100
O263        O  0.74624644  0.28995160  0.40014834    -0.58600
C264        C  0.65372451  0.28021203  0.34050613     0.75100
C265        C  0.69406019  0.37550555  0.39214596     0.77500
Cd266      Cd  0.68637525  0.30441545  0.40014574     1.37500
O267        O  0.64294521  0.30288347  0.44345364    -0.57500
O268        O  0.66873877  0.36273747  0.40598357    -0.56300
C269        C  0.74085748  0.25876297  0.40035386     0.77500
O270        O  0.71648620  0.35550702  0.38248607    -0.58700
O271        O  0.69362112  0.29348713  0.45956188    -0.57100
O272        O  0.67971151  0.29796218  0.34025181    -0.57100
O273        O  0.71079378  0.24926706  0.40235573    -0.56300
O274        O  0.70009037  0.53881648  0.38733464    -0.57500
C275        C  0.72236113  0.64327293  0.38429901     0.75100
O276        O  0.71525233  0.59971658  0.29138681    -0.58600
C277        C  0.69500226  0.51721300  0.36481090     0.75100
C278        C  0.62395205  0.60009547  0.34433585     0.77500
Cd279      Cd  0.69497934  0.58719080  0.34853751     1.37500
O280        O  0.72749150  0.61366402  0.39451691    -0.57500
O281        O  0.63925676  0.59566979  0.37176203    -0.56300
C282        C  0.74503072  0.59026401  0.29723388     0.77500
O283        O  0.64180766  0.59864917  0.31831499    -0.58700
O284        O  0.70319066  0.64647915  0.35934327    -0.57100
O285        O  0.68882588  0.52837633  0.33586643    -0.57100
O286        O  0.75050413  0.57785133  0.32577555    -0.56300
O287        O  0.46076001  0.62508679  0.32992986    -0.57500
C288        C  0.35808474  0.62920441  0.33072513     0.75100
O289        O  0.40793140  0.69363050  0.40559863    -0.58600
C290        C  0.48402656  0.63645322  0.34811736     0.75100
C291        C  0.41844742  0.71808341  0.30593819     0.77500
Cd292      Cd  0.41742839  0.66307034  0.35276601     1.37500
O293        O  0.38610598  0.61446133  0.33116190    -0.57500
O294        O  0.42886407  0.68925247  0.29880866    -0.56300
C295        C  0.40565800  0.66765589  0.42364864     0.77500
O296        O  0.40974379  0.72246758  0.33593715    -0.58700
O297        O  0.35774649  0.65871274  0.34151808    -0.57100
O298        O  0.47636697  0.65974371  0.36787393    -0.57100
O299        O  0.40983523  0.64003773  0.40904115    -0.56300
O300        O  0.39101612  0.65670603  0.58749306    -0.57500
C301        C  0.37920839  0.67385540  0.69233063     0.75100
O302        O  0.29101069  0.68199725  0.62885580    -0.58600
C303        C  0.37112305  0.66305286  0.56350897     0.75100
C304        C  0.33256463  0.58569686  0.63597592     0.77500
Cd305      Cd  0.34694882  0.65592725  0.63057320     1.37500
O306        O  0.39540327  0.67322021  0.66515911    -0.57500
O307        O  0.35963361  0.59671575  0.62411398    -0.56300
C308        C  0.30251001  0.71158427  0.62915150     0.77500
O309        O  0.31111951  0.60720218  0.64473700    -0.58700
O310        O  0.34934894  0.66379261  0.69088541    -0.57100
O311        O  0.34058877  0.66667705  0.57081217    -0.57100
O312        O  0.33396356  0.71449590  0.62975081    -0.56300
C313        C  0.41228379  0.64401345  0.48066922    -0.08800
C314        C  0.39853193  0.66887894  0.45989341     0.07400
C315        C  0.37689247  0.69281032  0.47398436    -0.02600
C316        C  0.36876217  0.69079475  0.50792888    -0.07000
C317        C  0.38241200  0.66576281  0.52854556     0.06500
C318        C  0.40470060  0.64246379  0.51469708    -0.02100
Br319      Br  0.42336470  0.60630744  0.54030268    -0.01800
H320        H  0.42881261  0.62536224  0.47028793     0.10400
H321        H  0.35140234  0.70873106  0.51824000     0.08400
Br322      Br  0.35569942  0.72731793  0.44801032    -0.02200
C323        C  0.57042428  0.60862831  0.37435679    -0.08800
C324        C  0.58729231  0.60690863  0.34364213     0.07400
C325        C  0.56862671  0.61218373  0.31387174    -0.02600
C326        C  0.53450876  0.62030324  0.31565603    -0.07000
C327        C  0.51853923  0.62364882  0.34655899     0.06500
C328        C  0.53655539  0.61682012  0.37598189    -0.02100
Br329      Br  0.51563622  0.61712651  0.41905947    -0.01800
H330        H  0.58368122  0.60392168  0.39754932     0.10400
H331        H  0.52068807  0.62524817  0.29282087     0.08400
Br332      Br  0.58769084  0.60960850  0.27003339    -0.02200
C333        C  0.70466762  0.42331663  0.35436893    -0.08800
C334        C  0.69650729  0.41175332  0.38634796     0.07400
C335        C  0.68902330  0.43495859  0.41149327    -0.02600
C336        C  0.68916653  0.46918087  0.40417486    -0.07000
C337        C  0.69617232  0.48085865  0.37180374     0.06500
C338        C  0.70427697  0.45741849  0.34677829    -0.02100
Br339      Br  0.71607593  0.46987346  0.30193759    -0.01800
H340        H  0.71053294  0.40562539  0.33488380     0.10400
H341        H  0.68327586  0.48669075  0.42379403     0.08400
Br342      Br  0.67986375  0.42116540  0.45648775    -0.02200
C343        C  0.65844524  0.27265904  0.55889660    -0.08800
C344        C  0.63386365  0.29499518  0.56991835     0.07400
C345        C  0.61668912  0.31491344  0.54629224    -0.02600
C346        C  0.62562664  0.31369472  0.51268363    -0.07000
C347        C  0.65177636  0.29313010  0.50197624     0.06500
C348        C  0.66766799  0.27171352  0.52525333    -0.02100
Br349      Br  0.70166460  0.24035939  0.51264111    -0.01800
H350        H  0.67150822  0.25685136  0.57669605     0.10400
H351        H  0.61285415  0.32988619  0.49502185     0.08400
Br352      Br  0.58048883  0.34397837  0.55819010    -0.02200
C353        C  0.45964483  0.32958343  0.70418284    -0.08800
C354        C  0.44732029  0.35638958  0.68506638     0.07400
C355        C  0.47010214  0.37635079  0.66705859    -0.02600
C356        C  0.50413770  0.36804243  0.66666494    -0.07000
C357        C  0.51624233  0.34026576  0.68447597     0.06500
C358        C  0.49375746  0.32159228  0.70427011    -0.02100
Br359      Br  0.50843137  0.28654276  0.73383610    -0.01800
H360        H  0.44263721  0.31463181  0.71900310     0.10400
H361        H  0.52116970  0.38324618  0.65214180     0.08400
Br362      Br  0.45655574  0.41671735  0.64479764    -0.02200
C363        C  0.33632119  0.49208876  0.62420442    -0.08800
C364        C  0.32840665  0.48072402  0.65645071     0.07400
C365        C  0.31792522  0.50419308  0.68052198    -0.02600
C366        C  0.31733243  0.53822620  0.67253907    -0.07000
C367        C  0.32751414  0.54960947  0.64107681     0.06500
C368        C  0.33625750  0.52621130  0.61650069    -0.02100
Br369      Br  0.34796659  0.53960841  0.57199239    -0.01800
H370        H  0.34380502  0.47449373  0.60521980     0.10400
H371        H  0.31036507  0.55602094  0.69155377     0.08400
Br372      Br  0.30381640  0.49175991  0.72466253    -0.02200
C373        C  0.23695474  0.32845975  0.79561125    -0.08800
C374        C  0.20999474  0.35097558  0.79749275     0.07400
C375        C  0.21381264  0.38323406  0.78347647    -0.02600
C376        C  0.24273300  0.39098791  0.76549686    -0.07000
C377        C  0.26848465  0.36756244  0.76187248     0.06500
C378        C  0.26593422  0.33642247  0.77801610    -0.02100
Br379      Br  0.29907031  0.30205681  0.77325563    -0.01800
H380        H  0.23492841  0.30369139  0.80637415     0.10400
H381        H  0.24465468  0.41510182  0.75326812     0.08400
Br382      Br  0.18082788  0.41783641  0.78710447    -0.02200
C383        C  0.26844885  0.61582320  0.30334138    -0.08800
C384        C  0.27329299  0.59547023  0.27538839     0.07400
C385        C  0.30524663  0.58153136  0.26987023    -0.02600
C386        C  0.33213420  0.59081926  0.29011118    -0.07000
C387        C  0.32795194  0.61398857  0.31584752     0.06500
C388        C  0.29540019  0.62515021  0.32355340    -0.02100
Br389      Br  0.28602218  0.65338972  0.36095798    -0.01800
H390        H  0.24394269  0.62603514  0.30851125     0.10400
H391        H  0.35681168  0.58136444  0.28434421     0.08400
Br392      Br  0.31430165  0.55022119  0.23488262    -0.02200
C393        C  0.17273161  0.33135785  0.98969703    -0.08800
C394        C  0.15720216  0.30922134  0.01196228     0.07400
C395        C  0.13477133  0.28516392  0.99915649    -0.02600
C396        C  0.12739507  0.28472092  0.96487902    -0.07000
C397        C  0.14197256  0.30790631  0.94289407     0.06500
C398        C  0.16548653  0.33090267  0.95561341    -0.02100
Br399      Br  0.19023560  0.36128201  0.92785034    -0.01800
H400        H  0.19058563  0.34948049  0.99890124     0.10400
H401        H  0.10987442  0.26639351  0.95544383     0.08400
Br402      Br  0.11493223  0.25116290  0.02659455    -0.02200
C403        C  0.19222208  0.48211281  0.13121722    -0.08800
C404        C  0.19986689  0.48881246  0.16479990     0.07400
C405        C  0.20788492  0.46187349  0.18632684    -0.02600
C406        C  0.20609259  0.42912053  0.17456153    -0.07000
C407        C  0.19682917  0.42247254  0.14147014     0.06500
C408        C  0.19076081  0.44930050  0.11946800    -0.02100
Br409      Br  0.18257802  0.44247584  0.07281560    -0.01800
H410        H  0.18691687  0.50244655  0.11406491     0.10400
H411        H  0.21161415  0.40865160  0.19150654     0.08400
Br412      Br  0.22343620  0.46793582  0.23133953    -0.02200
C413        C  0.74707411  0.39620287  0.74024501    -0.08800
C414        C  0.77076748  0.37183961  0.74921105     0.07400
C415        C  0.76664906  0.33899135  0.73762061    -0.02600
C416        C  0.73850056  0.33078810  0.71867816    -0.07000
C417        C  0.71369001  0.35462171  0.71120294     0.06500
C418        C  0.71881026  0.38797071  0.72117078    -0.02100
Br419      Br  0.68845435  0.42329981  0.70956173    -0.01800
H420        H  0.75009153  0.42158668  0.74894332     0.10400
H421        H  0.73505393  0.30496591  0.71157580     0.08400
Br422      Br  0.79592259  0.30313433  0.75075824    -0.02200
C423        C  0.96244300  0.35902417  0.86027001    -0.08800
C424        C  0.94955770  0.37370896  0.83098842     0.07400
C425        C  0.97194595  0.38142891  0.80478712    -0.02600
C426        C  0.00568310  0.37191758  0.80747302    -0.07000
C427        C  0.01771518  0.35509272  0.83599953     0.06500
C428        C  0.99591773  0.34993374  0.86306902    -0.02100
Br429      Br  0.01003132  0.33135265  0.90517917    -0.01800
H430        H  0.94623902  0.35382296  0.88124445     0.10400
H431        H  0.02231188  0.37679312  0.78674391     0.08400
Br432      Br  0.95866494  0.40501148  0.76503143    -0.02200
C433        C  0.83142805  0.59201386  0.25844568    -0.08800
C434        C  0.82834141  0.61951347  0.23681122     0.07400
C435        C  0.79619604  0.63304832  0.23087741    -0.02600
C436        C  0.76883474  0.62136863  0.24916656    -0.07000
C437        C  0.77260562  0.59607462  0.27327634     0.06500
C438        C  0.80402856  0.58011948  0.27649704    -0.02100
Br439      Br  0.81165517  0.54214309  0.30501958    -0.01800
H440        H  0.85564724  0.58050797  0.26253847     0.10400
H441        H  0.74477501  0.63333984  0.24558209     0.08400
Br442      Br  0.78760233  0.66730382  0.19821662    -0.02200
C443        C  0.03669796  0.62422149  0.23729280    -0.08800
C444        C  0.01984710  0.62586096  0.20656233     0.07400
C445        C  0.03690287  0.61758610  0.17721647    -0.02600
C446        C  0.07053409  0.60878497  0.17872576    -0.07000
C447        C  0.08826066  0.60852879  0.20913462     0.06500
C448        C  0.07079140  0.61604889  0.23887614    -0.02100
Br449      Br  0.09156054  0.61723537  0.28217413    -0.01800
H450        H  0.02365626  0.63078296  0.25998127     0.10400
H451        H  0.08299272  0.60278771  0.15557640     0.08400
Br452      Br  0.01535878  0.61741839  0.13429511    -0.02200
C453        C  0.82505927  0.51098424  0.85095129    -0.08800
C454        C  0.83577105  0.48477673  0.87175460     0.07400
C455        C  0.84789013  0.49216919  0.90403275    -0.02600
C456        C  0.84994615  0.52538956  0.91436964    -0.07000
C457        C  0.83967993  0.55158506  0.89332463     0.06500
C458        C  0.82678480  0.54409732  0.86140956    -0.02100
Br459      Br  0.81397625  0.57779537  0.82961344    -0.01800
H460        H  0.81587402  0.50574932  0.82604430     0.10400
H461        H  0.86011774  0.53083183  0.93884610     0.08400
Br462      Br  0.86459274  0.45864412  0.93423626    -0.02200
C463        C  0.91035797  0.68112063  0.03596137    -0.08800
C464        C  0.88811385  0.65640483  0.02483239     0.07400
C465        C  0.87312770  0.63502594  0.04848550    -0.02600
C466        C  0.87992241  0.63908112  0.08244022    -0.07000
C467        C  0.90152331  0.66426279  0.09381209     0.06500
C468        C  0.91705801  0.68529825  0.07010301    -0.02100
Br469      Br  0.94879083  0.71899988  0.08239704    -0.01800
H470        H  0.92213250  0.69766790  0.01807680     0.10400
H471        H  0.86810359  0.62234220  0.10011611     0.08400
Br472      Br  0.84456803  0.59856149  0.03602452    -0.02200
C473        C  0.38856557  0.70429622  0.78166134    -0.08800
C474        C  0.41431544  0.72782257  0.77793538     0.07400
C475        C  0.43145278  0.72950486  0.74718068    -0.02600
C476        C  0.42095540  0.70983445  0.72043375    -0.07000
C477        C  0.39342410  0.68832654  0.72330098     0.06500
C478        C  0.37796770  0.68469183  0.75483667    -0.02100
Br479      Br  0.34195178  0.65409072  0.76328560    -0.01800
H480        H  0.37539155  0.70220294  0.80516481     0.10400
H481        H  0.43349413  0.71272372  0.69666613     0.08400
Br482      Br  0.46898319  0.75838282  0.73932577    -0.02200
C483        C  0.38166447  0.78600713  0.25083810    -0.08800
C484        C  0.39925102  0.78068124  0.22096192     0.07400
C485        C  0.42754342  0.75949169  0.22185611    -0.02600
C486        C  0.43493731  0.74132864  0.25091352    -0.07000
C487        C  0.41504179  0.74399371  0.27959586     0.06500
C488        C  0.38916551  0.76794122  0.27991162    -0.02100
Br489      Br  0.36014494  0.77432380  0.31743647    -0.01800
H490        H  0.36034416  0.80268516  0.25112090     0.10400
H491        H  0.45545844  0.72367044  0.25050361     0.08400
Br492      Br  0.45619015  0.75225205  0.18421710    -0.02200
C493        C  0.27021390  0.70939893  0.11439845    -0.08800
C494        C  0.26980392  0.73768501  0.13479741     0.07400
C495        C  0.24711253  0.73919057  0.16147896    -0.02600
C496        C  0.22763180  0.71133139  0.16919598    -0.07000
C497        C  0.23017714  0.68169233  0.15068179     0.06500
C498        C  0.25016497  0.68172563  0.12163825    -0.02100
Br499      Br  0.25208982  0.64504683  0.09107350    -0.01800
H500        H  0.28698470  0.70845550  0.09324803     0.10400
H501        H  0.21202647  0.71228081  0.19120068     0.08400
Br502      Br  0.24477074  0.77674171  0.19098926    -0.02200
C503        C  0.42474719  0.81154397  0.98258609    -0.08800
C504        C  0.40496061  0.79379191  0.95978800     0.07400
C505        C  0.37707906  0.77581388  0.97156862    -0.02600
C506        C  0.36791429  0.77818209  0.00512372    -0.07000
C507        C  0.38699868  0.79695552  0.02775814     0.06500
C508        C  0.41650324  0.81260715  0.01646712    -0.02100
Br509      Br  0.44548452  0.83756503  0.04536239    -0.01800
H510        H  0.44655092  0.82502046  0.97390122     0.10400
H511        H  0.34554036  0.76548073  0.01352420     0.08400
Br512      Br  0.34929762  0.74942957  0.94276829    -0.02200
C513        C  0.64759073  0.24812133  0.25149221    -0.08800
C514        C  0.62390067  0.22264955  0.25524226     0.07400
C515        C  0.60613784  0.22017625  0.28547924    -0.02600
C516        C  0.61481371  0.24062580  0.31237796    -0.07000
C517        C  0.64075915  0.26415617  0.30967954     0.06500
C518        C  0.65599753  0.26895131  0.27811074    -0.02100
Br519      Br  0.68914403  0.30252945  0.26907867    -0.01800
H520        H  0.66086555  0.25090894  0.22811965     0.10400
H521        H  0.60191583  0.23720903  0.33586853     0.08400
Br522      Br  0.56936355  0.18991420  0.29123103    -0.02200
C523        C  0.30390189  0.21152318  0.15654133    -0.08800
C524        C  0.30059535  0.18326220  0.13598137     0.07400
C525        C  0.27895798  0.18526070  0.10803767    -0.02600
C526        C  0.25921579  0.21368633  0.10313630    -0.07000
C527        C  0.26112411  0.24091186  0.12488053     0.06500
C528        C  0.28454778  0.24016784  0.15119878    -0.02100
Br529      Br  0.28870693  0.27578693  0.18282756    -0.01800
H530        H  0.32046469  0.21088088  0.17799541     0.10400
H531        H  0.24166980  0.21426784  0.08245119     0.08400
Br532      Br  0.27412988  0.15031780  0.07579170    -0.02200
C533        C  0.31967526  0.96451495  0.17179885    -0.08800
C534        C  0.33029102  0.98675310  0.14679552     0.07400
C535        C  0.33995123  0.97403132  0.11551962    -0.02600
C536        C  0.34058868  0.93947650  0.11056574    -0.07000
C537        C  0.33104485  0.91733681  0.13606289     0.06500
C538        C  0.31977109  0.93014441  0.16666796    -0.02100
Br539      Br  0.30757774  0.90205651  0.20369045    -0.01800
H540        H  0.31205182  0.97387997  0.19591696     0.10400
H541        H  0.34931277  0.92980351  0.08695618     0.08400
Br542      Br  0.35522798  0.00203673  0.07968751    -0.02200
C543        C  0.46819542  0.08293411  0.16385970    -0.08800
C544        C  0.44684784  0.10318318  0.18285784     0.07400
C545        C  0.46073267  0.12929859  0.20185608    -0.02600
C546        C  0.49504302  0.13542750  0.20059987    -0.07000
C547        C  0.51634825  0.11535647  0.18159863     0.06500
C548        C  0.50280368  0.08844756  0.16353955    -0.02100
Br549      Br  0.52991360  0.05981267  0.13656392    -0.01800
H550        H  0.45791054  0.06274915  0.14917230     0.10400
H551        H  0.50520579  0.15615776  0.21462052     0.08400
Br552      Br  0.43430026  0.15889189  0.22851994    -0.02200
C553        C  0.75473940  0.73101436  0.91066723    -0.08800
C554        C  0.78644140  0.73555094  0.92492351     0.07400
C555        C  0.79553574  0.76759418  0.93640138    -0.02600
C556        C  0.77472774  0.79493805  0.92967638    -0.07000
C557        C  0.74485439  0.79086765  0.91168470     0.06500
C558        C  0.73393416  0.75825206  0.90405419    -0.02100
Br559      Br  0.69139543  0.74918657  0.88357824    -0.01800
H560        H  0.74684136  0.70642510  0.90274787     0.10400
H561        H  0.78306193  0.81969307  0.93658890     0.08400
Br562      Br  0.83610928  0.77572542  0.96089306    -0.02200
C563        C  0.57626028  0.86335548  0.83310579    -0.08800
C564        C  0.59728862  0.84740693  0.85634833     0.07400
C565        C  0.58356513  0.82341875  0.87827572    -0.02600
C566        C  0.54937612  0.81616706  0.87678746    -0.07000
C567        C  0.52818025  0.83265412  0.85400637     0.06500
C568        C  0.54199338  0.85639206  0.83189183    -0.02100
Br569      Br  0.51598634  0.87874974  0.79817569    -0.01800
H570        H  0.58648054  0.88165052  0.81596402     0.10400
H571        H  0.53926723  0.79758476  0.89369102     0.08400
Br572      Br  0.61029348  0.79827482  0.90943793    -0.02200
C573        C  0.65628653  0.19289362  0.78475896    -0.08800
C574        C  0.64304898  0.20243468  0.81574609     0.07400
C575        C  0.62114886  0.23008040  0.81694582    -0.02600
C576        C  0.61378210  0.24778326  0.78771041    -0.07000
C577        C  0.62847995  0.23928249  0.75715153     0.06500
C578        C  0.64977918  0.21130172  0.75577156    -0.02100
Br579      Br  0.67460782  0.19953310  0.71661765    -0.01800
H580        H  0.67348853  0.17206033  0.78330004     0.10400
H581        H  0.59764028  0.26945195  0.78922099     0.08400
Br582      Br  0.60329261  0.24779732  0.85762956    -0.02200
C583        C  0.79848599  0.26804524  0.85474890    -0.08800
C584        C  0.79986890  0.29557003  0.87624413     0.07400
C585        C  0.78369250  0.29339310  0.90746970    -0.02600
C586        C  0.76543255  0.26461303  0.91574707    -0.07000
C587        C  0.76305640  0.23768514  0.89349491     0.06500
C588        C  0.78001762  0.23962223  0.86278464    -0.02100
Br589      Br  0.77516977  0.20664763  0.82849630    -0.01800
H590        H  0.81018195  0.26934352  0.83043084     0.10400
H591        H  0.75241610  0.26355303  0.93939662     0.08400
Br592      Br  0.78571355  0.32846741  0.93987528    -0.02200
C593        C  0.71813506  0.03336068  0.90544522    -0.08800
C594        C  0.69311492  0.05213448  0.88931273     0.07400
C595        C  0.66961053  0.03535522  0.86893842    -0.02600
C596        C  0.67164188  0.00075436  0.86520944    -0.07000
C597        C  0.69655655  0.98198161  0.88147419     0.06500
C598        C  0.72002660  0.99868139  0.90179958    -0.02100
Br599      Br  0.75658322  0.97618265  0.92349341    -0.01800
H600        H  0.73645389  0.04573648  0.92107283     0.10400
H601        H  0.65358242  0.98842541  0.84924471     0.08400
Br602      Br  0.63512957  0.05784424  0.84387856    -0.02200
C603        C  0.62545487  0.14416017  0.01509902    -0.08800
C604        C  0.65182994  0.16482181  0.00502078     0.07400
C605        C  0.66792714  0.18528064  0.02855983    -0.02600
C606        C  0.65852227  0.18369241  0.06201318    -0.07000
C607        C  0.63376022  0.16129984  0.07256800     0.06500
C608        C  0.61650773  0.14199971  0.04871255    -0.02100
Br609      Br  0.58040625  0.11264621  0.06045692    -0.01800
H610        H  0.61270446  0.12865362  0.99700483     0.10400
H611        H  0.67168553  0.19891570  0.08005382     0.08400
Br612      Br  0.70279069  0.21585579  0.01626198    -0.02200
C613        C  0.90624375  0.69741494  0.77033300    -0.08800
C614        C  0.92512054  0.72659191  0.77402136     0.07400
C615        C  0.94019084  0.73325774  0.80522200    -0.02600
C616        C  0.93236087  0.71348276  0.83294243    -0.07000
C617        C  0.90985915  0.68679776  0.83017179     0.06500
C618        C  0.89869192  0.67739529  0.79798938    -0.02100
Br619      Br  0.87250007  0.63815728  0.78988346    -0.01800
H620        H  0.89550249  0.69123822  0.74626783     0.10400
H621        H  0.94225077  0.72044088  0.85714567     0.08400
Br622      Br  0.97108660  0.76935998  0.81177929    -0.02200
C623        C  0.83779302  0.87327255  0.76599858    -0.08800
C624        C  0.83216484  0.85110678  0.73960238     0.07400
C625        C  0.79916756  0.84008090  0.73340463    -0.02600
C626        C  0.77323683  0.84953709  0.75474630    -0.07000
C627        C  0.77938183  0.86942011  0.78288984     0.06500
C628        C  0.81207034  0.88218061  0.78778797    -0.02100
Br629      Br  0.82433437  0.91070804  0.82425432    -0.01800
H630        H  0.86287999  0.88216662  0.77106845     0.10400
H631        H  0.74837749  0.83982958  0.75013143     0.08400
Br632      Br  0.78769847  0.81157191  0.69672409    -0.02200
C633        C  0.27272652  0.80152669  0.63158237    -0.08800
C634        C  0.24129708  0.79747774  0.64641058     0.07400
C635        C  0.22809607  0.76500610  0.64995267    -0.02600
C636        C  0.24775568  0.73732338  0.64222012    -0.07000
C637        C  0.28055564  0.74126257  0.63062583     0.06500
C638        C  0.29237072  0.77384174  0.62356609    -0.02100
Br639      Br  0.33500323  0.78265151  0.60334599    -0.01800
H640        H  0.28290949  0.82632391  0.62790386     0.10400
H641        H  0.23777813  0.71259377  0.64676925     0.08400
Br642      Br  0.18347506  0.75667204  0.66523393    -0.02200
C643        C  0.30739275  0.89090251  0.76950687    -0.08800
C644        C  0.27654583  0.87513833  0.77568095     0.07400
C645        C  0.27489220  0.85153141  0.80197690    -0.02600
C646        C  0.30394790  0.84265553  0.81949787    -0.07000
C647        C  0.33527882  0.85662863  0.81173695     0.06500
C648        C  0.33651990  0.88195457  0.78703191    -0.02100
Br649      Br  0.37701215  0.90429276  0.77424641    -0.01800
H650        H  0.30930011  0.90942389  0.74980635     0.10400
H651        H  0.30207221  0.82350826  0.83859154     0.08400
Br652      Br  0.23468609  0.82837250  0.81429065    -0.02200
C653        C  0.07240700  0.86358071  0.72859945    -0.08800
C654        C  0.09384285  0.85109565  0.70386674     0.07400
C655        C  0.08068828  0.82839525  0.68031246    -0.02600
C656        C  0.04678965  0.82020087  0.68078202    -0.07000
C657        C  0.02504115  0.83378084  0.70444244     0.06500
C658        C  0.03834013  0.85504585  0.72918884    -0.02100
Br659      Br  0.01199557  0.87143028  0.76552797    -0.01800
H660        H  0.08209999  0.88032622  0.74745721     0.10400
H661        H  0.03728989  0.80312279  0.66211438     0.08400
Br662      Br  0.10737197  0.80607344  0.64756796    -0.02200
C663        C  0.80696760  0.20696997  0.35955422    -0.08800
C664        C  0.80655518  0.17811160  0.37973608     0.07400
C665        C  0.78899751  0.17897091  0.41031835    -0.02600
C666        C  0.76912800  0.20663003  0.41784657    -0.07000
C667        C  0.76761702  0.23417321  0.39621484     0.06500
C668        C  0.78786195  0.23490582  0.36766287    -0.02100
Br669      Br  0.78688258  0.27159785  0.33661418    -0.01800
H670        H  0.82061351  0.20723159  0.33626700     0.10400
H671        H  0.75393624  0.20621774  0.44017997     0.08400
Br672      Br  0.79031146  0.14347218  0.44275252    -0.02200
C673        C  0.70650693  0.07837810  0.24476253    -0.08800
C674        C  0.71049793  0.09834106  0.21620397     0.07400
C675        C  0.74311960  0.10833584  0.20700690    -0.02600
C676        C  0.77025255  0.10124425  0.22816175    -0.07000
C677        C  0.76550600  0.08446078  0.25861849     0.06500
C678        C  0.73347549  0.07152611  0.26598758    -0.02100
Br679      Br  0.72435817  0.04503703  0.30503926    -0.01800
H680        H  0.68184840  0.06984929  0.25193478     0.10400
H681        H  0.79478478  0.11062614  0.22166272     0.08400
Br682      Br  0.75229749  0.13230222  0.16641470    -0.02200
C683        C  0.26385944  0.29284638  0.61726982    -0.08800
C684        C  0.28866077  0.28858703  0.64190318     0.07400
C685        C  0.29165731  0.25705521  0.65785265    -0.02600
C686        C  0.26963869  0.23134846  0.64970877    -0.07000
C687        C  0.24390799  0.23611585  0.62636118     0.06500
C688        C  0.24141409  0.26714251  0.60958955    -0.02100
Br689      Br  0.20828000  0.27613336  0.57585516    -0.01800
H690        H  0.26104582  0.31670413  0.60471981     0.10400
H691        H  0.27190655  0.20772933  0.66282380     0.08400
Br692      Br  0.32438717  0.24668659  0.69167092    -0.02200
C693        C  0.08952081  0.23495762  0.73668140    -0.08800
C694        C  0.10780426  0.22874807  0.76614543     0.07400
C695        C  0.12844562  0.20018588  0.76763617    -0.02600
C696        C  0.13460130  0.18217092  0.73850614    -0.07000
C697        C  0.11976904  0.19128077  0.70784253     0.06500
C698        C  0.09482560  0.21621184  0.70783448    -0.02100
Br699      Br  0.06833875  0.22749266  0.66931876    -0.01800
H700        H  0.07216676  0.25570314  0.73547399     0.10400
H701        H  0.15256001  0.16193447  0.73958994     0.08400
Br702      Br  0.15090125  0.18541791  0.80755427    -0.02200
C703        C  0.15906174  0.00018558  0.66570661    -0.08800
C704        C  0.18985870  0.98411156  0.66150605     0.07400
C705        C  0.21650935  0.00180590  0.64678306    -0.02600
C706        C  0.21213862  0.03525049  0.63737410    -0.07000
C707        C  0.18122731  0.05141440  0.64149757     0.06500
C708        C  0.15431490  0.03324797  0.65551808    -0.02100
Br709      Br  0.11061401  0.05175432  0.66291224    -0.01800
H710        H  0.13835420  0.98680105  0.67688049     0.10400
H711        H  0.23308302  0.04866269  0.62671690     0.08400
Br712      Br  0.25988549  0.98234783  0.64057792    -0.02200
C713        C  0.23065092  0.08128495  0.24447286    -0.08800
C714        C  0.26264837  0.09337992  0.25254667     0.07400
C715        C  0.26662064  0.11275054  0.28161333    -0.02600
C716        C  0.23857573  0.12146167  0.30038998    -0.07000
C717        C  0.20628516  0.11123913  0.29103069     0.06500
C718        C  0.20260010  0.08999636  0.26322640    -0.02100
Br719      Br  0.15998813  0.07484693  0.24692637    -0.01800
H720        H  0.22709542  0.06624523  0.22234211     0.10400
H721        H  0.24194370  0.13760262  0.32174578     0.08400
Br722      Br  0.30874800  0.13118026  0.29546226    -0.02200
C723        C  0.12903011  0.26844409  0.26244157    -0.08800
C724        C  0.11478535  0.23690506  0.25699738     0.07400
C725        C  0.10465560  0.22844141  0.22417269    -0.02600
C726        C  0.11219191  0.24973490  0.19754130    -0.07000
C727        C  0.12983411  0.27945690  0.20265897     0.06500
C728        C  0.13661852  0.28968116  0.23567460    -0.02100
Br729      Br  0.15694307  0.33187279  0.24581237    -0.01800
H730        H  0.13613148  0.27590622  0.28743461     0.10400
H731        H  0.10624691  0.24176541  0.17239494     0.08400
Br732      Br  0.08172889  0.18778193  0.21310144    -0.02200
C733        C  0.96994647  0.09978893  0.30668186    -0.08800
C734        C  0.94965650  0.10713175  0.33422953     0.07400
C735        C  0.96390394  0.12414706  0.36169815    -0.02600
C736        C  0.99752822  0.13340211  0.36103684    -0.07000
C737        C  0.01779272  0.12581508  0.33370723     0.06500
C738        C  0.00381665  0.10873580  0.30631491    -0.02100
Br739      Br  0.02911007  0.09908691  0.26689884    -0.01800
H740        H  0.95941519  0.08707419  0.28527354     0.10400
H741        H  0.00794665  0.14675309  0.38212408     0.08400
Br742      Br  0.93880644  0.13766977  0.40016393    -0.02200
C743        C  0.11880706  0.14258661  0.46206603    -0.08800
C744        C  0.13911165  0.16322827  0.44213526     0.07400
C745        C  0.16426605  0.18243935  0.45765849    -0.02600
C746        C  0.16859375  0.18060645  0.49230558    -0.07000
C747        C  0.14799984  0.16028246  0.51213232     0.06500
C748        C  0.12290862  0.14111482  0.49673204    -0.02100
Br749      Br  0.09522440  0.11070977  0.52139100    -0.01800
H750        H  0.09956656  0.12740450  0.45061315     0.10400
H751        H  0.18826546  0.19516061  0.50387404     0.08400
Br752      Br  0.19492228  0.20994355  0.43310612    -0.02200
C753        C  0.74639145  0.73261605  0.40438078    -0.08800
C754        C  0.77981371  0.72855434  0.41448350     0.07400
C755        C  0.79224577  0.69576526  0.41941322    -0.02600
C756        C  0.77223917  0.66824966  0.41148618    -0.07000
C757        C  0.73975752  0.67247576  0.39880758     0.06500
C758        C  0.72639092  0.70504128  0.39664527    -0.02100
Br759      Br  0.68089232  0.71358623  0.38373344    -0.01800
H760        H  0.73600890  0.75741143  0.40131154     0.10400
H761        H  0.78275626  0.64342957  0.41383146     0.08400
Br762      Br  0.83615326  0.68624974  0.43680448    -0.02200
C763        C  0.90028036  0.77364099  0.27107251    -0.08800
C764        C  0.92124696  0.74588306  0.27591064     0.07400
C765        C  0.93549543  0.74064653  0.30794886    -0.02600
C766        C  0.92496218  0.75997188  0.33494200    -0.07000
C767        C  0.90073914  0.78498191  0.33074825     0.06500
C768        C  0.89014276  0.79324481  0.29805459    -0.02100
Br769      Br  0.86164343  0.83075231  0.28872338    -0.01800
H770        H  0.89004903  0.77901549  0.24653369     0.10400
H771        H  0.93430873  0.75397180  0.35969831     0.08400
Br772      Br  0.96885287  0.70722230  0.31701679    -0.02200
C773        C  0.81459274  0.92865023  0.36952050    -0.08800
C774        C  0.82699705  0.92062667  0.40135177     0.07400
C775        C  0.83823864  0.94652218  0.42228085    -0.02600
C776        C  0.83925029  0.97941275  0.41023947    -0.07000
C777        C  0.82951668  0.98691430  0.37732584     0.06500
C778        C  0.81583022  0.96139619  0.35737112    -0.02100
Br779      Br  0.79791213  0.96974585  0.31353369    -0.01800
H780        H  0.80536481  0.90910315  0.35335550     0.10400
H781        H  0.84885755  0.99892265  0.42622341     0.08400
Br782      Br  0.85186784  0.93835801  0.46757387    -0.02200
C783        C  0.90898430  0.81379486  0.53322367    -0.08800
C784        C  0.87803346  0.80074755  0.52307839     0.07400
C785        C  0.85828444  0.78351645  0.54680029    -0.02600
C786        C  0.86885182  0.78150525  0.58018406    -0.07000
C787        C  0.89881496  0.79650209  0.59058883     0.06500
C788        C  0.91942805  0.81182354  0.56653295    -0.02100
Br789      Br  0.96273865  0.82928971  0.57749934    -0.01800
H790        H  0.92492179  0.82629021  0.51528082     0.10400
H791        H  0.85305851  0.76904693  0.59829299     0.08400
Br792      Br  0.81737741  0.76119353  0.53516830    -0.02200
loop_ 
_geom_bond_atom_site_label_1 
_geom_bond_atom_site_label_2 
_geom_bond_distance 
_geom_bond_site_symmetry_2 
_ccdc_geom_bond_type 
O1            C4   1.269       .  A
O1           Cd6   2.468       .  S
C2           O11   1.263       .  A
C2            O7   1.269       .  A
C2          C767   1.483       .  S
O3            C9   1.271       .  A
O3           Cd6   2.491       .  S
C4           O12   1.265       .  A
C4          C784   1.483       .  S
C5           O10   1.267       .  A
C5            O8   1.264       .  A
C5          C774   1.477       .  S
Cd6          O13   2.415       .  S
Cd6          O12   2.458       .  S
Cd6          O11   2.448       .  S
Cd6           O7   2.492       .  S
Cd6          O10   2.488       .  S
Cd6           O8   2.460       .  S
C9           O13   1.262       .  A
C9          C754   1.485       .  S
O14          C17   1.267       .  A
O14         Cd19   2.454       .  S
C15          O24   1.266       .  A
C15          O20   1.266       .  A
C15         C717   1.482       .  S
O16          C22   1.270       .  A
O16         Cd19   2.506       .  S
C17          O25   1.267       .  A
C17         C737   1.474       .  S
C18          O23   1.269       .  A
C18          O21   1.265       .  A
C18         C744   1.481       .  S
Cd19         O26   2.410       .  S
Cd19         O25   2.439       .  S
Cd19         O24   2.447       .  S
Cd19         O20   2.463       .  S
Cd19         O23   2.488       .  S
Cd19         O21   2.435       .  S
C22          O26   1.260       .  A
C22         C724   1.484       .  S
O27          C30   1.270       .  A
O27         Cd32   2.489       .  S
C28          O37   1.264       .  A
C28          O33   1.270       .  A
C28         C747   1.475       .  S
O29          C35   1.270       .  A
O29         Cd32   2.452       .  S
C30          O38   1.264       .  A
C30         C697   1.486       .  S
C31          O36   1.269       .  A
C31          O34   1.264       .  A
C31         C707   1.483       .  S
Cd32         O39   2.442       .  S
Cd32         O38   2.420       .  S
Cd32         O37   2.429       .  S
Cd32         O33   2.482       .  S
Cd32         O36   2.473       .  S
Cd32         O34   2.427       .  S
C35          O39   1.265       .  A
C35         C687   1.479       .  S
O40          C43   1.266       .  A
O40         Cd45   2.474       .  S
C41          O50   1.266       .  A
C41          O46   1.265       .  A
C41         C664   1.482       .  S
O42          C48   1.270       .  A
O42         Cd45   2.496       .  S
C43          O51   1.266       .  A
C43         C777   1.477   1_545  S
C44          O49   1.270       .  A
C44          O47   1.262       .  A
C44         C677   1.482       .  S
Cd45         O52   2.419       .  S
Cd45         O51   2.433       .  S
Cd45         O50   2.446       .  S
Cd45         O46   2.445       .  S
Cd45         O49   2.508       .  S
Cd45         O47   2.415       .  S
C48          O52   1.262       .  A
C48         C734   1.481       .  S
O53          C56   1.266       .  A
O53         Cd58   2.476       .  S
C54          O63   1.263       .  A
C54          O59   1.268       .  A
C54         C634   1.477       .  S
O55          C61   1.266       .  A
O55         Cd58   2.489       .  S
C56          O64   1.266       .  A
C56         C704   1.477       .  S
C57          O62   1.270       .  A
C57          O60   1.265       .  A
C57         C654   1.487       .  S
Cd58         O65   2.464       .  S
Cd58         O64   2.449       .  S
Cd58         O63   2.423       .  S
Cd58         O59   2.489       .  S
Cd58         O62   2.499       .  S
Cd58         O60   2.440       .  S
C61          O65   1.263       .  A
C61         C644   1.492       .  S
O66          C69   1.268       .  A
O66         Cd71   2.493       .  S
C67          O76   1.263       .  A
C67          O72   1.269       .  A
C67         C624   1.484       .  S
O68          C74   1.268       .  A
O68         Cd71   2.492       .  S
C69          O77   1.266       .  A
C69         C657   1.484   1_655  S
C70          O75   1.269       .  A
C70          O73   1.262       .  A
C70         C614   1.476       .  S
Cd71         O78   2.455       .  S
Cd71         O77   2.437       .  S
Cd71         O76   2.445       .  S
Cd71         O72   2.487       .  S
Cd71         O75   2.492       .  S
Cd71         O73   2.407       .  S
C74          O78   1.266       .  A
C74         C787   1.480       .  S
O79          C82   1.267       .  A
O79         Cd84   2.455       .  S
C80          O89   1.265       .  A
C80          O85   1.267       .  A
C80         C574   1.479       .  S
O81          C87   1.269       .  A
O81         Cd84   2.469       .  S
C82          O90   1.265       .  A
C82         C604   1.464   1_556  S
C83          O88   1.270       .  A
C83          O86   1.263       .  A
C83         C594   1.483       .  S
Cd84         O91   2.454       .  S
Cd84         O90   2.414       .  S
Cd84         O89   2.413       .  S
Cd84         O85   2.458       .  S
Cd84         O88   2.484       .  S
Cd84         O86   2.437       .  S
C87          O91   1.264       .  A
C87         C587   1.479       .  S
O92          C95   1.271       .  A
O92         Cd97   2.496       .  S
C93         O102   1.265       .  A
C93          O98   1.268       .  A
C93         C597   1.481       .  S
O94         C100   1.269       .  A
O94         Cd97   2.489       .  S
C95         O103   1.263       .  A
C95         C557   1.477       .  S
C96         O101   1.269       .  A
C96          O99   1.266       .  A
C96         C564   1.478       .  S
Cd97        O104   2.437       .  S
Cd97        O103   2.392       .  S
Cd97        O102   2.436       .  S
Cd97         O98   2.475       .  S
Cd97        O101   2.463       .  S
Cd97         O99   2.451       .  S
C100        O104   1.262       .  A
C100        C627   1.488       .  S
O105        C108   1.270       .  A
O105       Cd110   2.471       .  S
C106        O115   1.264       .  A
C106        O111   1.268       .  A
C106        C524   1.487       .  S
O107        C113   1.269       .  A
O107       Cd110   2.467       .  S
C108        O116   1.266       .  A
C108        C534   1.475   1_545  S
C109        O114   1.267       .  A
C109        O112   1.266       .  A
C109        C544   1.477       .  S
Cd110       O117   2.424       .  S
Cd110       O116   2.402       .  S
Cd110       O115   2.433       .  S
Cd110       O111   2.474       .  S
Cd110       O114   2.451       .  S
Cd110       O112   2.454       .  S
C113        O117   1.265       .  A
C113        C714   1.481       .  S
O118        C121   1.268       .  A
O118       Cd123   2.488       .  S
C119        O128   1.262       .  A
C119        O124   1.269       .  A
C119        C674   1.482       .  S
O120        C126   1.266       .  A
O120       Cd123   2.455       .  S
C121        O129   1.264       .  A
C121        C547   1.474       .  S
C122        O127   1.268       .  A
C122        O125   1.265       .  A
C122        C514   1.479       .  S
Cd123       O130   2.425       .  S
Cd123       O129   2.423       .  S
Cd123       O128   2.442       .  S
Cd123       O124   2.481       .  S
Cd123       O127   2.468       .  S
Cd123       O125   2.442       .  S
C126        O130   1.264       .  A
C126        C607   1.469       .  S
O131        C134   1.265       .  A
O131       Cd136   2.491       .  S
C132        O141   1.266       .  A
C132        O137   1.267       .  A
C132        C507   1.478       .  S
O133        C139   1.265       .  A
O133       Cd136   2.457       .  S
C134        O142   1.263       .  A
C134        C484   1.489       .  S
C135        O140   1.264       .  A
C135        O138   1.264       .  A
C135        C537   1.470       .  S
Cd136       O143   2.436       .  S
Cd136       O142   2.460       .  S
Cd136       O141   2.449       .  S
Cd136       O137   2.460       .  S
Cd136       O140   2.455       .  S
Cd136       O138   2.458       .  S
C139        O143   1.264       .  A
C139        C494   1.469       .  S
O144        C147   1.267       .  A
O144       Cd149   2.507       .  S
C145        O154   1.266       .  A
C145        O150   1.269       .  A
C145        C567   1.480       .  S
O146        C152   1.266       .  A
O146       Cd149   2.463       .  S
C147        O155   1.263       .  A
C147        C647   1.494       .  S
C148        O153   1.267       .  A
C148        O151   1.263       .  A
C148        C474   1.482       .  S
Cd149       O156   2.451       .  S
Cd149       O155   2.447       .  S
Cd149       O154   2.444       .  S
Cd149       O150   2.471       .  S
Cd149       O153   2.474       .  S
Cd149       O151   2.431       .  S
C152        O156   1.266       .  A
C152        C504   1.475       .  S
O157        C160   1.270       .  A
O157       Cd162   2.492       .  S
C158        O167   1.265       .  A
C158        O163   1.270       .  A
C158        C464   1.479   1_556  S
O159        C165   1.268       .  A
O159       Cd162   2.475       .  S
C160        O168   1.261       .  A
C160        C617   1.482       .  S
C161        O166   1.266       .  A
C161        O164   1.267       .  A
C161        C457   1.474       .  S
Cd162       O169   2.427       .  S
Cd162       O168   2.431       .  S
Cd162       O167   2.423       .  S
Cd162       O163   2.488       .  S
Cd162       O166   2.450       .  S
Cd162       O164   2.453       .  S
C165        O169   1.263       .  A
C165        C554   1.477       .  S
O170        C173   1.266       .  A
O170       Cd175   2.475       .  S
C171        O180   1.264       .  A
C171        O176   1.268       .  A
C171        C434   1.482       .  S
O172        C178   1.271       .  A
O172       Cd175   2.507       .  S
C173        O181   1.265       .  A
C173        C444   1.468   1_655  S
C174        O179   1.270       .  A
C174        O177   1.265       .  A
C174        C467   1.484       .  S
Cd175       O182   2.433       .  S
Cd175       O181   2.429       .  S
Cd175       O180   2.443       .  S
Cd175       O176   2.465       .  S
Cd175       O179   2.498       .  S
Cd175       O177   2.429       .  S
C178        O182   1.262       .  A
C178        C764   1.488       .  S
O183        C186   1.266       .  A
O183       Cd188   2.453       .  S
C184        O193   1.265       .  A
C184        O189   1.267       .  A
C184        C584   1.483       .  S
O185        C191   1.267       .  A
O185       Cd188   2.471       .  S
C186        O194   1.266       .  A
C186        C454   1.475       .  S
C187        O192   1.268       .  A
C187        O190   1.264       .  A
C187        C424   1.487       .  S
Cd188       O195   2.443       .  S
Cd188       O194   2.433       .  S
Cd188       O193   2.435       .  S
Cd188       O189   2.486       .  S
Cd188       O192   2.507       .  S
Cd188       O190   2.406       .  S
C191        O195   1.264       .  A
C191        C414   1.473       .  S
O196        C199   1.267       .  A
O196       Cd201   2.482       .  S
C197        O206   1.260       .  A
C197        O202   1.267       .  A
C197        C727   1.477       .  S
O198        C204   1.266       .  A
O198       Cd201   2.486       .  S
C199        O207   1.268       .  A
C199        C394   1.482       .  S
C200        O205   1.265       .  A
C200        O203   1.267       .  A
C200        C407   1.475       .  S
Cd201       O208   2.432       .  S
Cd201       O207   2.445       .  S
Cd201       O206   2.427       .  S
Cd201       O202   2.482       .  S
Cd201       O205   2.456       .  S
Cd201       O203   2.480       .  S
C204        O208   1.262       .  A
C204        C527   1.474       .  S
O209        C212   1.268       .  A
O209       Cd214   2.469       .  S
C210        O219   1.264       .  A
C210        O215   1.266       .  A
C210        C497   1.484       .  S
O211        C217   1.267       .  A
O211       Cd214   2.484       .  S
C212        O220   1.265       .  A
C212        C404   1.481       .  S
C213        O218   1.268       .  A
C213        O216   1.262       .  A
C213        C384   1.477       .  S
Cd214       O221   2.405       .  S
Cd214       O220   2.445       .  S
Cd214       O219   2.439       .  S
Cd214       O215   2.472       .  S
Cd214       O218   2.475       .  S
Cd214       O216   2.415       .  S
C217        O221   1.265       .  A
C217        C447   1.485       .  S
O222        C225   1.267       .  A
O222       Cd227   2.483       .  S
C223        O232   1.265       .  A
C223        O228   1.268       .  A
C223        C427   1.479       .  S
O224        C230   1.266       .  A
O224       Cd227   2.487       .  S
C225        O233   1.264       .  A
C225        C374   1.485       .  S
C226        O231   1.269       .  A
C226        O229   1.264       .  A
C226        C397   1.481       .  S
Cd227       O234   2.437       .  S
Cd227       O233   2.431       .  S
Cd227       O232   2.415       .  S
Cd227       O228   2.489       .  S
Cd227       O231   2.490       .  S
Cd227       O229   2.425       .  S
C230        O234   1.263       .  A
C230        C694   1.484       .  S
O235        C238   1.270       .  A
O235       Cd240   2.508       .  S
C236        O245   1.266       .  A
C236        O241   1.270       .  A
C236        C364   1.482       .  S
O237        C243   1.269       .  A
O237       Cd240   2.463       .  S
C238        O246   1.259       .  A
C238        C684   1.485       .  S
C239        O244   1.266       .  A
C239        O242   1.266       .  A
C239        C354   1.481       .  S
Cd240       O247   2.411       .  S
Cd240       O246   2.404       .  S
Cd240       O245   2.435       .  S
Cd240       O241   2.479       .  S
Cd240       O244   2.481       .  S
Cd240       O242   2.466       .  S
C243        O247   1.264       .  A
C243        C377   1.468       .  S
O248        C251   1.270       .  A
O248       Cd253   2.490       .  S
C249        O258   1.263       .  A
C249        O254   1.269       .  A
C249        C417   1.484       .  S
O250        C256   1.269       .  A
O250       Cd253   2.462       .  S
C251        O259   1.265       .  A
C251        C357   1.482       .  S
C252        O257   1.268       .  A
C252        O255   1.264       .  A
C252        C344   1.475       .  S
Cd253       O260   2.408       .  S
Cd253       O259   2.439       .  S
Cd253       O258   2.425       .  S
Cd253       O254   2.496       .  S
Cd253       O257   2.478       .  S
Cd253       O255   2.419       .  S
C256        O260   1.265       .  A
C256        C577   1.474       .  S
O261        C264   1.268       .  A
O261       Cd266   2.500       .  S
C262        O271   1.264       .  A
C262        O267   1.269       .  A
C262        C347   1.475       .  S
O263        C269   1.268       .  A
O263       Cd266   2.463       .  S
C264        O272   1.260       .  A
C264        C517   1.488       .  S
C265        O270   1.266       .  A
C265        O268   1.264       .  A
C265        C334   1.473       .  S
Cd266       O273   2.417       .  S
Cd266       O272   2.429       .  S
Cd266       O271   2.434       .  S
Cd266       O267   2.461       .  S
Cd266       O270   2.477       .  S
Cd266       O268   2.454       .  S
C269        O273   1.264       .  A
C269        C667   1.465       .  S
O274        C277   1.270       .  A
O274       Cd279   2.486       .  S
C275        O284   1.263       .  A
C275        O280   1.269       .  A
C275        C757   1.482       .  S
O276        C282   1.270       .  A
O276       Cd279   2.481       .  S
C277        O285   1.264       .  A
C277        C337   1.483       .  S
C278        O283   1.268       .  A
C278        O281   1.267       .  A
C278        C324   1.491       .  S
Cd279       O286   2.434       .  S
Cd279       O285   2.426       .  S
Cd279       O284   2.440       .  S
Cd279       O280   2.493       .  S
Cd279       O283   2.484       .  S
Cd279       O281   2.443       .  S
C282        O286   1.263       .  A
C282        C437   1.483       .  S
O287        C290   1.266       .  A
O287       Cd292   2.487       .  S
C288        O297   1.262       .  A
C288        O293   1.267       .  A
C288        C387   1.476       .  S
O289        C295   1.268       .  A
O289       Cd292   2.482       .  S
C290        O298   1.266       .  A
C290        C327   1.474       .  S
C291        O296   1.266       .  A
C291        O294   1.263       .  A
C291        C487   1.482       .  S
Cd292       O299   2.452       .  S
Cd292       O298   2.435       .  S
Cd292       O297   2.434       .  S
Cd292       O293   2.475       .  S
Cd292       O296   2.489       .  S
Cd292       O294   2.443       .  S
C295        O299   1.266       .  A
C295        C314   1.482       .  S
O300        C303   1.270       .  A
O300       Cd305   2.472       .  S
C301        O310   1.262       .  A
C301        O306   1.270       .  A
C301        C477   1.484       .  S
O302        C308   1.272       .  A
O302       Cd305   2.469       .  S
C303        O311   1.265       .  A
C303        C317   1.477       .  S
C304        O309   1.268       .  A
C304        O307   1.263       .  A
C304        C367   1.474       .  S
Cd305       O312   2.404       .  S
Cd305       O311   2.443       .  S
Cd305       O310   2.440       .  S
Cd305       O306   2.479       .  S
Cd305       O309   2.487       .  S
Cd305       O307   2.442       .  S
C308        O312   1.264       .  A
C308        C637   1.480       .  S
C313        C314   1.405       .  A
C313        C318   1.399       .  A
C313        H320   1.084       .  S
C314        C315   1.413       .  A
C315        C316   1.402       .  A
C315       Br322   1.921       .  S
C316        C317   1.405       .  A
C316        H321   1.084       .  S
C317        C318   1.408       .  A
C318       Br319   1.920       .  S
C323        C324   1.408       .  A
C323        C328   1.395       .  A
C323        H330   1.084       .  S
C324        C325   1.419       .  A
C325        C326   1.405       .  A
C325       Br332   1.921       .  S
C326        C327   1.403       .  A
C326        H331   1.084       .  S
C327        C328   1.405       .  A
C328       Br329   1.921       .  S
C333        C334   1.400       .  A
C333        C338   1.398       .  A
C333        H340   1.084       .  S
C334        C335   1.408       .  A
C335        C336   1.401       .  A
C335       Br342   1.920       .  S
C336        C337   1.406       .  A
C336        H341   1.083       .  S
C337        C338   1.416       .  A
C338       Br339   1.923       .  S
C343        C344   1.404       .  A
C343        C348   1.400       .  A
C343        H350   1.084       .  S
C344        C345   1.411       .  A
C345        C346   1.396       .  A
C345       Br352   1.921       .  S
C346        C347   1.401       .  A
C346        H351   1.084       .  S
C347        C348   1.413       .  A
C348       Br349   1.922       .  S
C353        C354   1.404       .  A
C353        C358   1.401       .  A
C353        H360   1.084       .  S
C354        C355   1.411       .  A
C355        C356   1.401       .  A
C355       Br362   1.919       .  S
C356        C357   1.404       .  A
C356        H361   1.083       .  S
C357        C358   1.413       .  A
C358       Br359   1.922       .  S
C363        C364   1.405       .  A
C363        C368   1.400       .  A
C363        H370   1.083       .  S
C364        C365   1.416       .  A
C365        C366   1.399       .  A
C365       Br372   1.922       .  S
C366        C367   1.400       .  A
C366        H371   1.084       .  S
C367        C368   1.409       .  A
C368       Br369   1.919       .  S
C373        C374   1.408       .  A
C373        C378   1.395       .  A
C373        H380   1.083       .  S
C374        C375   1.415       .  A
C375        C376   1.399       .  A
C375       Br382   1.920       .  S
C376        C377   1.402       .  A
C376        H381   1.084       .  S
C377        C378   1.406       .  A
C378       Br379   1.922       .  S
C383        C384   1.403       .  A
C383        C388   1.398       .  A
C383        H390   1.083       .  S
C384        C385   1.413       .  A
C385        C386   1.396       .  A
C385       Br392   1.922       .  S
C386        C387   1.402       .  A
C386        H391   1.083       .  S
C387        C388   1.412       .  A
C388       Br389   1.921       .  S
C393        C394   1.402   1_556  A
C393        C398   1.395       .  A
C393        H400   1.084       .  S
C394        C395   1.414   1_554  A
C395        C396   1.404       .  A
C395       Br402   1.920   1_556  S
C396        C397   1.405       .  A
C396        H401   1.084       .  S
C397        C398   1.413       .  A
C398       Br399   1.922       .  S
C403        C404   1.406       .  A
C403        C408   1.400       .  A
C403        H410   1.083       .  S
C404        C405   1.414       .  A
C405        C406   1.399       .  A
C405       Br412   1.922       .  S
C406        C407   1.402       .  A
C406        H411   1.084       .  S
C407        C408   1.407       .  A
C408       Br409   1.918       .  S
C413        C414   1.404       .  A
C413        C418   1.402       .  A
C413        H420   1.084       .  S
C414        C415   1.408       .  A
C415        C416   1.396       .  A
C415       Br422   1.923       .  S
C416        C417   1.407       .  A
C416        H421   1.084       .  S
C417        C418   1.412       .  A
C418       Br419   1.918       .  S
C423        C424   1.405       .  A
C423        C428   1.391       .  A
C423        H430   1.083       .  S
C424        C425   1.416       .  A
C425        C426   1.405   1_655  A
C425       Br432   1.920       .  S
C426        C427   1.407       .  A
C426        H431   1.083       .  S
C427        C428   1.409   1_455  A
C428       Br429   1.923   1_655  S
C433        C434   1.403       .  A
C433        C438   1.398       .  A
C433        H440   1.084       .  S
C434        C435   1.414       .  A
C435        C436   1.399       .  A
C435       Br442   1.921       .  S
C436        C437   1.404       .  A
C436        H441   1.084       .  S
C437        C438   1.415       .  A
C438       Br439   1.921       .  S
C443        C444   1.402       .  A
C443        C448   1.403       .  A
C443        H450   1.084       .  S
C444        C445   1.403       .  A
C445        C446   1.391       .  A
C445       Br452   1.920       .  S
C446        C447   1.407       .  A
C446        H451   1.083       .  S
C447        C448   1.418       .  A
C448       Br449   1.921       .  S
C453        C454   1.403       .  A
C453        C458   1.396       .  A
C453        H460   1.084       .  S
C454        C455   1.412       .  A
C455        C456   1.399       .  A
C455       Br462   1.921       .  S
C456        C457   1.403       .  A
C456        H461   1.084       .  S
C457        C458   1.411       .  A
C458       Br459   1.919       .  S
C463        C464   1.405       .  A
C463        C468   1.404       .  A
C463        H470   1.083       .  S
C464        C465   1.410       .  A
C465        C466   1.397       .  A
C465       Br472   1.922       .  S
C466        C467   1.406       .  A
C466        H471   1.083       .  S
C467        C468   1.413       .  A
C468       Br469   1.919       .  S
C473        C474   1.405       .  A
C473        C478   1.399       .  A
C473        H480   1.084       .  S
C474        C475   1.414       .  A
C475        C476   1.397       .  A
C475       Br482   1.922       .  S
C476        C477   1.403       .  A
C476        H481   1.084       .  S
C477        C478   1.416       .  A
C478       Br479   1.922       .  S
C483        C484   1.408       .  A
C483        C488   1.399       .  A
C483        H490   1.083       .  S
C484        C485   1.415       .  A
C485        C486   1.400       .  A
C485       Br492   1.921       .  S
C486        C487   1.405       .  A
C486        H491   1.084       .  S
C487        C488   1.411       .  A
C488       Br489   1.921       .  S
C493        C494   1.402       .  A
C493        C498   1.399       .  A
C493        H500   1.084       .  S
C494        C495   1.407       .  A
C495        C496   1.396       .  A
C495       Br502   1.922       .  S
C496        C497   1.408       .  A
C496        H501   1.083       .  S
C497        C498   1.415       .  A
C498       Br499   1.920       .  S
C503        C504   1.403       .  A
C503        C508   1.399   1_556  A
C503        H510   1.084       .  S
C504        C505   1.410       .  A
C505        C506   1.399   1_556  A
C505       Br512   1.921       .  S
C506        C507   1.405       .  A
C506        H511   1.084       .  S
C507        C508   1.412       .  A
C508       Br509   1.920       .  S
C513        C514   1.401       .  A
C513        C518   1.398       .  A
C513        H520   1.084       .  S
C514        C515   1.410       .  A
C515        C516   1.400       .  A
C515       Br522   1.921       .  S
C516        C517   1.407       .  A
C516        H521   1.083       .  S
C517        C518   1.419       .  A
C518       Br519   1.923       .  S
C523        C524   1.410       .  A
C523        C528   1.399       .  A
C523        H530   1.083       .  S
C524        C525   1.414       .  A
C525        C526   1.398       .  A
C525       Br532   1.920       .  S
C526        C527   1.402       .  A
C526        H531   1.084       .  S
C527        C528   1.408       .  A
C528       Br529   1.921       .  S
C533        C534   1.404       .  A
C533        C538   1.394       .  A
C533        H540   1.084       .  S
C534        C535   1.411       .  A
C535        C536   1.400       .  A
C535       Br542   1.919   1_565  S
C536        C537   1.404       .  A
C536        H541   1.083       .  S
C537        C538   1.408       .  A
C538       Br539   1.922       .  S
C543        C544   1.407       .  A
C543        C548   1.402       .  A
C543        H550   1.083       .  S
C544        C545   1.411       .  A
C545        C546   1.395       .  A
C545       Br552   1.920       .  S
C546        C547   1.402       .  A
C546        H551   1.084       .  S
C547        C548   1.409       .  A
C548       Br549   1.919       .  S
C553        C554   1.401       .  A
C553        C558   1.396       .  A
C553        H560   1.084       .  S
C554        C555   1.414       .  A
C555        C556   1.400       .  A
C555       Br562   1.922       .  S
C556        C557   1.403       .  A
C556        H561   1.084       .  S
C557        C558   1.413       .  A
C558       Br559   1.921       .  S
C563        C564   1.403       .  A
C563        C568   1.399       .  A
C563        H570   1.083       .  S
C564        C565   1.412       .  A
C565        C566   1.399       .  A
C565       Br572   1.921       .  S
C566        C567   1.405       .  A
C566        H571   1.083       .  S
C567        C568   1.411       .  A
C568       Br569   1.919       .  S
C573        C574   1.407       .  A
C573        C578   1.396       .  A
C573        H580   1.084       .  S
C574        C575   1.413       .  A
C575        C576   1.396       .  A
C575       Br582   1.922       .  S
C576        C577   1.404       .  A
C576        H581   1.084       .  S
C577        C578   1.409       .  A
C578       Br579   1.921       .  S
C583        C584   1.404       .  A
C583        C588   1.395       .  A
C583        H590   1.084       .  S
C584        C585   1.413       .  A
C585        C586   1.404       .  A
C585       Br592   1.921       .  S
C586        C587   1.407       .  A
C586        H591   1.084       .  S
C587        C588   1.409       .  A
C588       Br589   1.921       .  S
C593        C594   1.405       .  A
C593        C598   1.400   1_545  A
C593        H600   1.084       .  S
C594        C595   1.415       .  A
C595        C596   1.398       .  A
C595       Br602   1.923       .  S
C596        C597   1.404   1_545  A
C596        H601   1.084   1_545  S
C597        C598   1.412       .  A
C598       Br599   1.920       .  S
C603        C604   1.401       .  A
C603        C608   1.397       .  A
C603        H610   1.084   1_554  S
C604        C605   1.407       .  A
C605        C606   1.395       .  A
C605       Br612   1.921       .  S
C606        C607   1.402       .  A
C606        H611   1.084       .  S
C607        C608   1.411       .  A
C608       Br609   1.921       .  S
C613        C614   1.400       .  A
C613        C618   1.399       .  A
C613        H620   1.084       .  S
C614        C615   1.413       .  A
C615        C616   1.397       .  A
C615       Br622   1.922       .  S
C616        C617   1.403       .  A
C616        H621   1.084       .  S
C617        C618   1.416       .  A
C618       Br619   1.918       .  S
C623        C624   1.403       .  A
C623        C628   1.400       .  A
C623        H630   1.084       .  S
C624        C625   1.413       .  A
C625        C626   1.400       .  A
C625       Br632   1.921       .  S
C626        C627   1.405       .  A
C626        H631   1.083       .  S
C627        C628   1.417       .  A
C628       Br629   1.923       .  S
C633        C634   1.402       .  A
C633        C638   1.399       .  A
C633        H640   1.084       .  S
C634        C635   1.411       .  A
C635        C636   1.396       .  A
C635       Br642   1.918       .  S
C636        C637   1.402       .  A
C636        H641   1.083       .  S
C637        C638   1.416       .  A
C638       Br639   1.923       .  S
C643        C644   1.409       .  A
C643        C648   1.403       .  A
C643        H650   1.083       .  S
C644        C645   1.414       .  A
C645        C646   1.400       .  A
C645       Br652   1.922       .  S
C646        C647   1.408       .  A
C646        H651   1.083       .  S
C647        C648   1.415       .  A
C648       Br649   1.921       .  S
C653        C654   1.407       .  A
C653        C658   1.405       .  A
C653        H660   1.084       .  S
C654        C655   1.415       .  A
C655        C656   1.395       .  A
C655       Br662   1.920       .  S
C656        C657   1.401       .  A
C656        H661   1.084       .  S
C657        C658   1.414       .  A
C658       Br659   1.920       .  S
C663        C664   1.408       .  A
C663        C668   1.396       .  A
C663        H670   1.083       .  S
C664        C665   1.415       .  A
C665        C666   1.399       .  A
C665       Br672   1.922       .  S
C666        C667   1.401       .  A
C666        H671   1.084       .  S
C667        C668   1.405       .  A
C668       Br669   1.921       .  S
C673        C674   1.402       .  A
C673        C678   1.397       .  A
C673        H680   1.083       .  S
C674        C675   1.415       .  A
C675        C676   1.402       .  A
C675       Br682   1.921       .  S
C676        C677   1.404       .  A
C676        H681   1.083       .  S
C677        C678   1.414       .  A
C678       Br679   1.922       .  S
C683        C684   1.406       .  A
C683        C688   1.401       .  A
C683        H690   1.083       .  S
C684        C685   1.418       .  A
C685        C686   1.395       .  A
C685       Br692   1.924       .  S
C686        C687   1.400       .  A
C686        H691   1.084       .  S
C687        C688   1.413       .  A
C688       Br689   1.921       .  S
C693        C694   1.407       .  A
C693        C698   1.399       .  A
C693        H700   1.083       .  S
C694        C695   1.412       .  A
C695        C696   1.399       .  A
C695       Br702   1.921       .  S
C696        C697   1.408       .  A
C696        H701   1.084       .  S
C697        C698   1.411       .  A
C698       Br699   1.920       .  S
C703        C704   1.401   1_545  A
C703        C708   1.397       .  A
C703        H710   1.084   1_545  S
C704        C705   1.410   1_565  A
C705        C706   1.401       .  A
C705       Br712   1.919   1_545  S
C706        C707   1.406       .  A
C706        H711   1.083       .  S
C707        C708   1.416       .  A
C708       Br709   1.923       .  S
C713        C714   1.406       .  A
C713        C718   1.398       .  A
C713        H720   1.084       .  S
C714        C715   1.412       .  A
C715        C716   1.398       .  A
C715       Br722   1.921       .  S
C716        C717   1.405       .  A
C716        H721   1.084       .  S
C717        C718   1.413       .  A
C718       Br719   1.923       .  S
C723        C724   1.405       .  A
C723        C728   1.400       .  A
C723        H730   1.084       .  S
C724        C725   1.418       .  A
C725        C726   1.397       .  A
C725       Br732   1.923       .  S
C726        C727   1.400       .  A
C726        H731   1.084       .  S
C727        C728   1.412       .  A
C728       Br729   1.921       .  S
C733        C734   1.405       .  A
C733        C738   1.402   1_655  A
C733        H740   1.084       .  S
C734        C735   1.416       .  A
C735        C736   1.396       .  A
C735       Br742   1.923       .  S
C736        C737   1.400   1_655  A
C736        H741   1.085   1_655  S
C737        C738   1.411       .  A
C738       Br739   1.920       .  S
C743        C744   1.407       .  A
C743        C748   1.399       .  A
C743        H750   1.083       .  S
C744        C745   1.412       .  A
C745        C746   1.400       .  A
C745       Br752   1.920       .  S
C746        C747   1.404       .  A
C746        H751   1.084       .  S
C747        C748   1.407       .  A
C748       Br749   1.919       .  S
C753        C754   1.404       .  A
C753        C758   1.400       .  A
C753        H760   1.083       .  S
C754        C755   1.417       .  A
C755        C756   1.400       .  A
C755       Br762   1.924       .  S
C756        C757   1.403       .  A
C756        H761   1.083       .  S
C757        C758   1.412       .  A
C758       Br759   1.920       .  S
C763        C764   1.405       .  A
C763        C768   1.401       .  A
C763        H770   1.084       .  S
C764        C765   1.417       .  A
C765        C766   1.400       .  A
C765       Br772   1.922       .  S
C766        C767   1.402       .  A
C766        H771   1.084       .  S
C767        C768   1.413       .  A
C768       Br769   1.920       .  S
C773        C774   1.402       .  A
C773        C778   1.398       .  A
C773        H780   1.083       .  S
C774        C775   1.411       .  A
C775        C776   1.402       .  A
C775       Br782   1.919       .  S
C776        C777   1.404       .  A
C776        H781   1.083       .  S
C777        C778   1.411       .  A
C778       Br779   1.922       .  S
C783        C784   1.404       .  A
C783        C788   1.399       .  A
C783        H790   1.084       .  S
C784        C785   1.415       .  A
C785        C786   1.403       .  A
C785       Br792   1.922       .  S
C786        C787   1.404       .  A
C786        H791   1.084       .  S
C787        C788   1.409       .  A
C788       Br789   1.919       .  S
