geometry optimzed in LAMMPS
_audit_creation_date              2020-11-30 
_audit_creation_method            'lammps2cif' 
_symmetry_space_group_name_H-M    'P1' 
_symmetry_Int_Tables_number       1 
_symmetry_cell_setting            triclinic 
loop_ 
_symmetry_equiv_pos_as_xyz 
  x,y,z 
_cell_length_a                    23.27247767 
_cell_length_b                    24.10577409514351 
_cell_length_c                    38.097563098685 
_cell_angle_alpha                 93.19954157562812 
_cell_angle_beta                  88.13940037267677 
_cell_angle_gamma                 91.45950157512692 
loop_ 
_atom_site_label 
_atom_site_type_symbol 
_atom_site_fract_x 
_atom_site_fract_y 
_atom_site_fract_z 
_atom_site_charge 
C1          C  0.86222681  0.36010144  0.47073396     0.31700
C2          C  0.85873664  0.35685605  0.04234256     0.31700
C3          C  0.87685940  0.30441770  0.48558669    -0.04500
C4          C  0.90253689  0.40176925  0.49038572    -0.05300
C5          C  0.80298601  0.37239277  0.48810793    -0.05100
C6          C  0.87455815  0.30135346  0.02231561    -0.04500
C7          C  0.90264444  0.39851991  0.02693193    -0.05300
C8          C  0.80184040  0.37220332  0.02559046    -0.05200
C9          C  0.90127887  0.25287797  0.03034739    -0.30500
N10         N  0.91688526  0.22571679  0.49990062     0.16000
C11         C  0.90422535  0.25706798  0.47264710    -0.30500
H12         H  0.91888833  0.24872990  0.44564968     0.17900
C13         C  0.94264777  0.43753971  0.03953007    -0.29500
N14         N  0.96855737  0.46194909  0.01163935     0.14700
C15         C  0.94257450  0.44256166  0.48172266    -0.29500
C16         C  0.75608153  0.40589071  0.03664935    -0.29800
N17         N  0.73064410  0.42449175  0.00794140     0.15200
H18         H  0.74665022  0.42102055  0.06345096     0.17800
C19         C  0.75828684  0.40366370  0.47798240    -0.29800
H20         H  0.75345608  0.41810867  0.45184989     0.17800
H21         H  0.95484809  0.45435506  0.45547132     0.17800
H22         H  0.91257105  0.24197301  0.05638343     0.17900
H23         H  0.95198862  0.44759131  0.06683633     0.17800
C24         C  0.86203954  0.35895493  0.22078118     0.31700
C25         C  0.85924653  0.36073459  0.29220713     0.31700
C26         C  0.87406019  0.30335131  0.23649663    -0.04500
C27         C  0.90517544  0.39963141  0.23896425    -0.05300
C28         C  0.80439946  0.37473032  0.23879476    -0.05100
C29         C  0.87294524  0.30396747  0.27321015    -0.04500
C30         C  0.90375807  0.40049837  0.27550425    -0.05300
C31         C  0.80245599  0.37625012  0.27553853    -0.05200
C32         C  0.90251868  0.25767271  0.28189399    -0.30500
N33         N  0.91958960  0.22851618  0.25186480     0.16000
C34         C  0.90392020  0.25719423  0.22419206    -0.30500
H35         H  0.91939454  0.24896100  0.19734383     0.17900
C36         C  0.94368614  0.44040530  0.28704137    -0.29500
N37         N  0.96908107  0.46353925  0.25852655     0.14700
C38         C  0.94593377  0.43904945  0.22902608    -0.29500
C39         C  0.75545622  0.40820655  0.28634093    -0.29800
N40         N  0.72858622  0.42411750  0.25738965     0.15200
H41         H  0.74598730  0.42426769  0.31294246     0.17800
C42         C  0.75911452  0.40481460  0.22851231    -0.29800
H43         H  0.75276861  0.41725767  0.20206300     0.17800
H44         H  0.95727493  0.44965880  0.20240791     0.17800
H45         H  0.91687578  0.24983005  0.30786808     0.17900
H46         H  0.95293451  0.45230490  0.31412735     0.17800
C47         C  0.73966488  0.88399057  0.03758864     0.31700
C48         C  0.74329341  0.88395179  0.46623893     0.31700
C49         C  0.71722938  0.83099650  0.01838995    -0.04500
C50         C  0.70495514  0.92936608  0.02193986    -0.05300
C51         C  0.79988178  0.89340624  0.02107530    -0.05100
C52         C  0.72109434  0.82911089  0.48088983    -0.04500
C53         C  0.70548118  0.92715068  0.48615507    -0.05300
C54         C  0.80200818  0.89480540  0.48322847    -0.05200
C55         C  0.69367979  0.78113839  0.46785059    -0.30500
N56         N  0.67264688  0.75425296  0.99748988     0.16000
C57         C  0.68682484  0.78381115  0.02748451    -0.30500
H58         H  0.67573182  0.77187518  0.05387291     0.17900
C59         C  0.69780543  0.98171629  0.47889809    -0.29500
N60         N  0.69574662  0.01551963  0.00586816     0.14700
C61         C  0.69871836  0.98397873  0.03383850    -0.29500
C62         C  0.84579854  0.93319058  0.47555425    -0.29800
N63         N  0.87191324  0.95137264  0.00657318     0.15200
H64         H  0.85680989  0.94832058  0.44991844     0.17800
C65         C  0.84298028  0.92842828  0.03362948    -0.29800
H66         H  0.85074641  0.93907972  0.06108796     0.17800
H67         H  0.70106473  0.00018279  0.06085083     0.17800
H68         H  0.68613614  0.76954127  0.44049693     0.17900
H69         H  0.70154934  0.99890290  0.45323923     0.17800
C70         C  0.73828916  0.88224239  0.28756399     0.31700
C71         C  0.74471779  0.88317953  0.21627216     0.31700
C72         C  0.73207400  0.82493180  0.26828227    -0.04500
C73         C  0.69189141  0.91523904  0.27109679    -0.05300
C74         C  0.79377997  0.90695678  0.27176907    -0.05100
C75         C  0.73601927  0.82511156  0.23121514    -0.04500
C76         C  0.69500760  0.91549996  0.23419419    -0.05300
C77         C  0.79725853  0.90849039  0.23539016    -0.05200
C78         C  0.70323143  0.77982447  0.21877188    -0.30500
N79         N  0.67979740  0.75291254  0.24626771     0.16000
C80         C  0.69558652  0.78083486  0.27632521    -0.30500
H81         H  0.67949343  0.77139059  0.30235237     0.17900
C82         C  0.64065216  0.92591779  0.22340563    -0.29500
N83         N  0.60576980  0.93258813  0.25227417     0.14700
C84         C  0.63575892  0.92506994  0.28129827    -0.29500
C85         C  0.84590794  0.94045226  0.22728567    -0.29800
N86         N  0.87188518  0.95681749  0.25784395     0.15200
H87         H  0.86101196  0.95116965  0.20130722     0.17800
C88         C  0.84034912  0.93629610  0.28498730    -0.29800
H89         H  0.84974618  0.94372747  0.31252375     0.17800
H90         H  0.61739929  0.92419663  0.30774433     0.17800
H91         H  0.69344944  0.76974402  0.19153529     0.17900
H92         H  0.62683092  0.92588693  0.19653961     0.17800
O93         O  0.16500946  0.18258871  0.49619684    -0.79200
O94         O  0.93662963  0.02651951  0.49817140    -0.63900
O95         O  0.07099564  0.11952429  0.01831784    -1.10500
C96         C  0.16721826  0.95174458  0.02469922     1.07700
O97         O  0.96335594  0.95237278  0.02691942    -0.77100
O98         O  0.03352405  0.00672715  0.07308815    -0.64700
Ni99       Ni  0.08383875  0.18106706  0.48869218     1.34900
C100        C  0.07186740  0.04158234  0.08338725     0.86400
O101        O  0.95211293  0.13827282  0.51378216    -0.77600
O102        O  0.00414281  0.19076667  0.47833004    -0.87900
C103        C  0.92707315  0.97838254  0.01040786     0.86000
O104        O  0.09381924  0.13010670  0.44947298    -0.66100
O105        O  0.12349247  0.94564852  0.04494715    -0.85400
C106        C  0.05582999  0.09520157  0.43866947     0.86800
C107        C  0.95939469  0.18290621  0.49751609     1.08400
H108        H  0.06004316  0.00008920  0.47956745     0.40200
O109        O  0.05728384  0.01389291  0.00362570    -1.08100
O110        O  0.11617641  0.05405422  0.06445342    -0.64700
Ni111      Ni  0.12422832  0.05900385  0.01362425     1.26300
O112        O  0.01173534  0.08121643  0.45732713    -0.64900
O113        O  0.17399310  0.99536107  0.00744165    -0.77200
C114        C  0.20209903  0.15439628  0.01143607     0.86200
O115        O  0.19084245  0.10641059  0.02278269    -0.64400
Ni116      Ni  0.04384777  0.95455140  0.03456853     1.27400
Ni117      Ni  0.00401862  0.07426384  0.00805086     1.25700
H118        H  0.06806919  0.13492448  0.04223495     0.40800
O119        O  0.17031396  0.15865421  0.23331905    -0.79200
O120        O  0.94158737  0.02507615  0.24240510    -0.63900
O121        O  0.07075436  0.12052132  0.26677569    -1.10500
C122        C  0.16507127  0.94825332  0.27427384     1.07700
O123        O  0.95752449  0.97317560  0.28678735    -0.77100
O124        O  0.04627576  0.99181436  0.32780604    -0.64700
Ni125      Ni  0.09238251  0.18179418  0.23912458     1.34900
C126        C  0.07627990  0.03375426  0.33796692     0.86400
O127        O  0.95467034  0.13803540  0.25370268    -0.77600
O128        O  0.01592659  0.20974622  0.24333393    -0.87900
C129        C  0.92625269  0.98585191  0.26193164     0.86000
O130        O  0.07980404  0.14721533  0.19393473    -0.66100
O131        O  0.11484105  0.92872306  0.28121914    -0.85400
C132        C  0.05151778  0.10416720  0.18386536     0.86800
C133        C  0.96559138  0.18979539  0.24961202     1.08400
H134        H  0.06627974  0.00021842  0.23167905     0.40200
O135        O  0.05882254  0.01574416  0.25527698    -1.08100
O136        O  0.10984238  0.06083390  0.31796360    -0.64700
Ni137      Ni  0.12446156  0.06148909  0.26809931     1.26300
O138        O  0.02016345  0.07541369  0.20411982    -0.64900
O139        O  0.17570615  0.99937370  0.26842967    -0.77200
C140        C  0.20159060  0.15073552  0.25902426     0.86200
O141        O  0.18792092  0.11232262  0.27952016    -0.64400
Ni142      Ni  0.03735070  0.95441923  0.28305010     1.27400
Ni143      Ni  0.00534157  0.07514853  0.25397160     1.26100
H144        H  0.06330861  0.13601828  0.29041426     0.40800
C145        C  0.26931874  0.77843207  0.48284535     0.31700
C146        C  0.26724667  0.77712178  0.05401657     0.31700
C147        C  0.25295843  0.83127479  0.00160795    -0.04500
C148        C  0.22845950  0.73329070  0.99909568    -0.05300
C149        C  0.32818485  0.76318434  0.99924039    -0.05100
C150        C  0.25130845  0.83168623  0.03815726    -0.04500
C151        C  0.22695485  0.73403156  0.03565039    -0.05300
C152        C  0.32613316  0.76437152  0.03623606    -0.05200
C153        C  0.22342001  0.87912210  0.05036901    -0.30500
N154        N  0.20937183  0.90866259  0.02257337     0.16000
C155        C  0.22670214  0.87940091  0.99258413    -0.30500
H156        H  0.21436248  0.89168533  0.46702578     0.17900
C157        C  0.18814265  0.69299947  0.04547843    -0.29500
N158        N  0.16623858  0.66767217  0.01590988     0.14700
C159        C  0.18653399  0.69689644  0.48806936    -0.29500
C160        C  0.36870317  0.73011374  0.04602292    -0.29800
N161        N  0.39812033  0.70966591  0.01707276     0.15200
H162        H  0.37356426  0.71598508  0.07222861     0.17800
C163        C  0.37245979  0.73068455  0.48821746    -0.29800
H164        H  0.38073212  0.71418195  0.46157619     0.17800
H165        H  0.17673881  0.68532148  0.46102085     0.17800
H166        H  0.20960994  0.88882891  0.07737319     0.17900
H167        H  0.17685478  0.68220759  0.07206931     0.17800
C168        C  0.27299039  0.77781170  0.23276459     0.31700
C169        C  0.26847763  0.77869401  0.30423750     0.31700
C170        C  0.25688054  0.83366043  0.25191330    -0.04500
C171        C  0.22966087  0.73628816  0.24890623    -0.05300
C172        C  0.33001974  0.76432120  0.24986651    -0.05100
C173        C  0.25468225  0.83390752  0.28854623    -0.04500
C174        C  0.22735773  0.73676131  0.28543712    -0.05300
C175        C  0.32723821  0.76512258  0.28670859    -0.05200
C176        C  0.22539488  0.88052340  0.30066314    -0.30500
N177        N  0.21107325  0.90959403  0.27280417     0.16000
C178        C  0.22904898  0.88066287  0.24290649    -0.30500
H179        H  0.21638769  0.88926290  0.21669764     0.17900
C180        C  0.18749582  0.69621923  0.29485702    -0.29500
N181        N  0.16580750  0.67131711  0.26505450     0.14700
C182        C  0.19117679  0.69538081  0.23685642    -0.29500
C183        C  0.37186849  0.73398355  0.29692424    -0.29800
N184        N  0.40292033  0.71532299  0.26807849     0.15200
H185        H  0.37718305  0.72028591  0.32319535     0.17800
C186        C  0.37689968  0.73227396  0.23916681    -0.29800
H187        H  0.38652579  0.71646167  0.21253237     0.17800
H188        H  0.18275645  0.68358674  0.20964308     0.17800
H189        H  0.20960532  0.88905995  0.32741491     0.17900
H190        H  0.17564544  0.68526662  0.32134005     0.17800
C191        C  0.38903822  0.24913303  0.05442553     0.31700
C192        C  0.38997064  0.25544857  0.48365333     0.31700
C193        C  0.39686508  0.30787177  0.04049739    -0.04500
C194        C  0.43768796  0.21732065  0.03477328    -0.05300
C195        C  0.33535007  0.22488314  0.03614038    -0.05100
C196        C  0.39219736  0.31310367  0.50308082    -0.04500
C197        C  0.43957566  0.22643064  0.49982746    -0.05300
C198        C  0.33695832  0.22660571  0.49994748    -0.05200
C199        C  0.42764167  0.35828441  0.49539693    -0.30500
N200        N  0.45157103  0.38133062  0.02608451     0.16000
C201        C  0.42975257  0.35280174  0.05330524    -0.30500
H202        H  0.44076151  0.36154607  0.08047914     0.17900
C203        C  0.49491573  0.21450641  0.48883565    -0.29500
N204        N  0.52619594  0.20240250  0.01423888     0.14700
C205        C  0.49304844  0.20746519  0.04394232    -0.29500
C206        C  0.28903430  0.19848363  0.48751836    -0.29800
N207        N  0.25852597  0.17913606  0.01470192     0.15200
H208        H  0.27715921  0.19297624  0.46028054     0.17800
C209        C  0.28635739  0.19385773  0.04485889    -0.29800
H210        H  0.27192639  0.18320568  0.07097676     0.17800
H211        H  0.50877238  0.20712657  0.07036401     0.17800
H212        H  0.44442340  0.36783388  0.46953441     0.17900
H213        H  0.51225791  0.21369137  0.46210156     0.17800
C214        C  0.37980542  0.25119646  0.30471546     0.31700
C215        C  0.38575316  0.25214653  0.23347999     0.31700
C216        C  0.40444931  0.30479528  0.28941481    -0.04500
C217        C  0.41715078  0.20623063  0.28624315    -0.05300
C218        C  0.32170038  0.24112632  0.28670063    -0.05100
C219        C  0.40813141  0.30481127  0.25301150    -0.04500
C220        C  0.42002251  0.20672766  0.24918336    -0.05300
C221        C  0.32507111  0.24296447  0.24964821    -0.05200
C222        C  0.43857694  0.35212472  0.24423511    -0.30500
N223        N  0.45242801  0.38133254  0.27440794     0.16000
C224        C  0.43132825  0.35319198  0.30217179    -0.30500
H225        H  0.43656271  0.36629781  0.32954268     0.17900
C226        C  0.42872324  0.15292999  0.23664607    -0.29500
N227        N  0.43215334  0.12069655  0.26422072     0.14700
C228        C  0.42401331  0.15184802  0.29440435    -0.29500
C229        C  0.28175531  0.20845379  0.23671618    -0.29800
N230        N  0.25236337  0.18529071  0.26356775     0.15200
H231        H  0.27550448  0.19687215  0.20920353     0.17800
C232        C  0.27718331  0.20328595  0.29399419    -0.29800
H233        H  0.26606961  0.18761231  0.31947135     0.17800
H234        H  0.41916797  0.13548925  0.32025941     0.17800
H235        H  0.44976813  0.36446698  0.21794526     0.17900
H236        H  0.42825309  0.13759874  0.20939336     0.17800
O237        O  0.70323381  0.50817548  0.48918552    -0.79200
O238        O  0.48761186  0.66907307  0.00345163    -0.63900
O239        O  0.61786285  0.57842656  0.01765473    -1.10500
C240        C  0.48174664  0.43405652  0.02890516     1.07700
O241        O  0.42080590  0.62214800  0.03396952    -0.77100
O242        O  0.49361656  0.57514466  0.07753637    -0.64700
Ni243      Ni  0.67977846  0.58279459  0.48325204     1.34900
C244        C  0.53840913  0.55145013  0.08657921     0.86400
O245        O  0.60069158  0.69007643  0.51199517    -0.77600
O246        O  0.66830191  0.65978197  0.47388214    -0.87900
C247        C  0.43747199  0.66457418  0.01766727     0.86000
O248        O  0.63262540  0.55770407  0.44572654    -0.66100
O249        O  0.46121257  0.47195823  0.04973065    -0.85400
C250        C  0.58802733  0.58181512  0.43685183     0.86800
C251        C  0.64631702  0.69823550  0.49366697     1.08400
H252        H  0.49317573  0.54819549  0.48383671     0.40200
O253        O  0.51030768  0.55503327  0.00709514    -1.08100
O254        O  0.56558362  0.51620844  0.06634582    -0.64700
Ni255      Ni  0.57455214  0.50942963  0.01511289     1.26300
O256        O  0.56079616  0.61674957  0.45729124    -0.64900
O257        O  0.52759767  0.44250389  0.01072792    -0.77200
C258        C  0.69055650  0.46904971  0.00728210     0.86200
O259        O  0.64082365  0.46473828  0.02213124    -0.64400
Ni260      Ni  0.44674175  0.54827142  0.04019008     1.27400
Ni261      Ni  0.55363005  0.62401973  0.00991061     1.26100
H262        H  0.63169614  0.58680608  0.04100375     0.40800
O263        O  0.70553007  0.51029569  0.23909945    -0.79200
O264        O  0.49001144  0.67185923  0.25145002    -0.63900
O265        O  0.61847880  0.57953586  0.26654282    -1.10500
C266        C  0.47841347  0.43595117  0.27631943     1.07700
O267        O  0.42721610  0.63007427  0.28733001    -0.77100
O268        O  0.49031272  0.57076002  0.32861903    -0.64700
Ni269      Ni  0.68217222  0.58487779  0.23332079     1.34900
C270        C  0.53602624  0.54806173  0.33681005     0.86400
O271        O  0.60351952  0.69250526  0.26228935    -0.77600
O272        O  0.67058174  0.66167678  0.22404670    -0.87900
C273        C  0.44216193  0.67026494  0.26861890     0.86000
O274        O  0.63534691  0.56024037  0.19548105    -0.66100
O275        O  0.45162653  0.47418017  0.29375628    -0.85400
C276        C  0.59118495  0.58502754  0.18654218     0.86800
C277        C  0.64957473  0.70021792  0.24412690     1.08400
H278        H  0.49708824  0.54980066  0.23302779     0.40200
O279        O  0.51059246  0.55813161  0.25649083    -1.08100
O280        O  0.56571967  0.51681407  0.31542699    -0.64700
Ni281      Ni  0.57386122  0.51113383  0.26431789     1.26300
O282        O  0.56383411  0.61949025  0.20721136    -0.64900
O283        O  0.52644146  0.44475480  0.26044650    -0.77200
C284        C  0.68899493  0.46881641  0.25627515     0.86200
O285        O  0.63920365  0.46526045  0.27104307    -0.64400
Ni286      Ni  0.44552569  0.55306670  0.28878891     1.27400
Ni287      Ni  0.55533141  0.62631552  0.25846974     1.26100
H288        H  0.63225209  0.58785222  0.28991593     0.40800
C289        C  0.55458470  0.55854492  0.37210296    -0.11600
C290        C  0.56883847  0.56984940  0.40181976    -0.13100
C291        C  0.55772842  0.56372820  0.12157019    -0.11600
C292        C  0.57243283  0.57444436  0.15127161    -0.13100
C293        C  0.39009312  0.25522785  0.44463932    -0.16800
C294        C  0.38686560  0.25441367  0.41284370     0.07300
C295        C  0.38189634  0.25313607  0.37556927     0.09100
C296        C  0.37899898  0.25205464  0.34375005    -0.17700
C297        C  0.38816609  0.24730761  0.09329288    -0.16800
C298        C  0.38871919  0.24827634  0.12516578     0.07300
C299        C  0.38935488  0.25069653  0.16260153     0.09100
C300        C  0.38883115  0.25240905  0.19450878    -0.17700
C301        C  0.26655799  0.77902791  0.34313058    -0.16800
C302        C  0.26680881  0.77880274  0.37493397     0.07300
C303        C  0.26826053  0.77827899  0.41220838     0.09100
C304        C  0.26943150  0.77803516  0.44398696    -0.17700
C305        C  0.26632649  0.77793968  0.09298510    -0.16800
C306        C  0.26823925  0.77797922  0.12478374     0.07300
C307        C  0.27167634  0.77769648  0.16204525     0.09100
C308        C  0.27376720  0.77753744  0.19383073    -0.17700
C309        C  0.06270453  0.07150406  0.40365904    -0.11600
C310        C  0.07018516  0.05300615  0.37397072    -0.13100
C311        C  0.06521818  0.06661468  0.11810787    -0.11600
C312        C  0.05749478  0.08541418  0.14772988    -0.13100
C313        C  0.54968742  0.95155782  0.25269355    -0.16800
C314        C  0.50571848  0.97649020  0.25459302     0.07300
C315        C  0.46640072  0.01951328  0.25844500     0.09100
C316        C  0.44588277  0.06466578  0.26162179    -0.17700
C317        C  0.58304167  0.18539302  0.01250629    -0.16800
C318        C  0.62768978  0.16159537  0.01081720     0.07300
C319        C  0.66667325  0.11826374  0.00888851     0.09100
C320        C  0.68517714  0.07225165  0.00746966    -0.17700
C321        C  0.73667726  0.88279036  0.32649672    -0.16800
C322        C  0.73796690  0.88370382  0.35831642     0.07300
C323        C  0.74079791  0.88460734  0.39560170     0.09100
C324        C  0.74284032  0.88477331  0.42737626    -0.17700
C325        C  0.74702481  0.88385691  0.17734376    -0.16800
C326        C  0.74507759  0.88372307  0.14554270     0.07300
C327        C  0.74093322  0.88334964  0.10830234     0.09100
C328        C  0.73833282  0.88328198  0.07653524    -0.17700
C329        C  0.01121513  0.50697067  0.25951797    -0.16800
C330        C  0.04720498  0.54455230  0.26064425     0.07300
C331        C  0.08915176  0.58903758  0.26221914     0.09100
C332        C  0.12461631  0.62707023  0.26357621    -0.17700
C333        C  0.12516819  0.62354047  0.01504310    -0.16800
C334        C  0.08964479  0.58574848  0.01459533     0.07300
C335        C  0.04752482  0.54173368  0.01417494     0.09100
C336        C  0.01119735  0.50465375  0.01337443    -0.17700
C337        C  0.85892389  0.36169592  0.33109323    -0.16800
C338        C  0.86072185  0.36204737  0.36287386     0.07300
C339        C  0.86336982  0.36187516  0.40012118     0.09100
C340        C  0.86439508  0.36124140  0.43189118    -0.17700
C341        C  0.85766781  0.35606960  0.08113833    -0.16800
C342        C  0.85887019  0.35630613  0.11291232     0.07300
C343        C  0.86120655  0.35714025  0.15015915     0.09100
C344        C  0.86263865  0.35802365  0.18193438    -0.17700
C345        C  0.86327836  0.35892009  0.97106312     0.31700
C346        C  0.85665295  0.35798024  0.54208101     0.31700
C347        C  0.87692586  0.30287658  0.98578077    -0.04500
C348        C  0.90480242  0.39960864  0.99044622    -0.05300
C349        C  0.80471712  0.37264280  0.98880119    -0.05100
C350        C  0.87394286  0.30290262  0.52207557    -0.04500
C351        C  0.89985997  0.40071902  0.52687296    -0.05300
C352        C  0.79955279  0.37187387  0.52488515    -0.05200
C353        C  0.89891582  0.25365189  0.53025903    -0.30500
N354        N  0.91940626  0.22531424  0.99989417     0.16000
C355        C  0.90579634  0.25642731  0.97275418    -0.30500
H356        H  0.92062635  0.24859727  0.94574486     0.17900
C357        C  0.93852589  0.44106538  0.53963452    -0.29500
N358        N  0.96418028  0.46620943  0.51188596     0.14700
C359        C  0.94585488  0.43921449  0.98158064    -0.29500
C360        C  0.75219637  0.40370147  0.53559120    -0.29800
N361        N  0.72637486  0.42136730  0.50671535     0.15200
H362        H  0.74197319  0.41865281  0.56232207     0.17800
C363        C  0.76132901  0.40577889  0.97901188    -0.29800
H364        H  0.75642100  0.42026933  0.95290232     0.17800
H365        H  0.95815899  0.45078972  0.95529071     0.17800
H366        H  0.90923085  0.24233636  0.55637896     0.17900
H367        H  0.94705560  0.45154891  0.56700030     0.17800
C368        C  0.85940696  0.35692817  0.72101653     0.31700
C369        C  0.85683939  0.35844302  0.79253233     0.31700
C370        C  0.87466198  0.30217310  0.73675188    -0.04500
C371        C  0.90045372  0.39960174  0.73934053    -0.05300
C372        C  0.80082982  0.36966741  0.73911691    -0.05100
C373        C  0.87351859  0.30270582  0.77341517    -0.04500
C374        C  0.89912280  0.40033209  0.77589119    -0.05300
C375        C  0.79906800  0.37096397  0.77598151    -0.05200
C376        C  0.90302265  0.25653494  0.78222610    -0.30500
N377        N  0.92058669  0.22770368  0.75219918     0.16000
C378        C  0.90480219  0.25620053  0.72444358    -0.30500
H379        H  0.91986170  0.24766182  0.69754440     0.17900
C380        C  0.93852229  0.44069832  0.78749495    -0.29500
N381        N  0.96350139  0.46429840  0.75901982     0.14700
C382        C  0.94069078  0.43955439  0.72948509    -0.29500
C383        C  0.75236839  0.40317464  0.78698720    -0.29800
N384        N  0.72527350  0.41936435  0.75825086     0.15200
H385        H  0.74365822  0.41964864  0.81358887     0.17800
C386        C  0.75563961  0.40032707  0.72923742    -0.29800
H387        H  0.74964748  0.41377156  0.70297664     0.17800
H388        H  0.95242687  0.44987484  0.70286896     0.17800
H389        H  0.91661293  0.24830854  0.80830573     0.17900
H390        H  0.94820234  0.45209712  0.81458575     0.17800
C391        C  0.74137547  0.87995089  0.53732440     0.31700
C392        C  0.74455073  0.88399900  0.96640638     0.31700
C393        C  0.71953431  0.82755620  0.51724598    -0.04500
C394        C  0.70477445  0.92535045  0.52325761    -0.05300
C395        C  0.80067215  0.89151197  0.52010891    -0.05100
C396        C  0.72038784  0.83058773  0.98200125    -0.04500
C397        C  0.70711322  0.92900566  0.98472893    -0.05300
C398        C  0.80278871  0.89469610  0.98406255    -0.05200
C399        C  0.69331114  0.78214073  0.96952413    -0.30500
N400        N  0.67445771  0.75180215  0.49552225     0.16000
C401        C  0.68972858  0.77988373  0.52577740    -0.30500
H402        H  0.67931150  0.76681308  0.55200258     0.17900
C403        C  0.70167280  0.98324951  0.97603886    -0.29500
N404        N  0.69163551  0.01206339  0.50949347     0.14700
C405        C  0.69687190  0.97903420  0.53655908    -0.29500
C406        C  0.84725536  0.93235039  0.97631292    -0.29800
N407        N  0.87154678  0.95084339  0.50572794     0.15200
H408        H  0.85942884  0.94613050  0.95049860     0.17800
C409        C  0.84390073  0.92629184  0.53267700    -0.29800
H410        H  0.85276345  0.93550974  0.56014598     0.17800
H411        H  0.69970736  0.99376126  0.56383410     0.17800
H412        H  0.68742995  0.76896376  0.94222163     0.17900
H413        H  0.70676080  0.99874948  0.94995590     0.17800
C414        C  0.74293482  0.87418919  0.78746412     0.31700
C415        C  0.75039682  0.87428757  0.71599580     0.31700
C416        C  0.73846838  0.81656978  0.76848785    -0.04500
C417        C  0.69605325  0.90527818  0.77029904    -0.05300
C418        C  0.79790907  0.89992411  0.77186604    -0.05100
C419        C  0.74298225  0.81629575  0.73124434    -0.04500
C420        C  0.69963997  0.90509066  0.73362888    -0.05300
C421        C  0.80195124  0.90114654  0.73540679    -0.05200
C422        C  0.70919682  0.77168773  0.71896562    -0.30500
N423        N  0.68444984  0.74596228  0.74648071     0.16000
C424        C  0.70075475  0.77344596  0.77649528    -0.30500
H425        H  0.68343879  0.76503641  0.80243441     0.17900
C426        C  0.64861835  0.92431940  0.72264373    -0.29500
N427        N  0.61495515  0.93572213  0.75163032     0.14700
C428        C  0.64295594  0.92424774  0.78080799    -0.29500
C429        C  0.84891579  0.93546859  0.72764932    -0.29800
N430        N  0.87329664  0.95335162  0.75843699     0.15200
H431        H  0.86377115  0.94699477  0.70178623     0.17800
C432        C  0.84244461  0.93167174  0.78539738    -0.29800
H433        H  0.85066983  0.94019299  0.81301210     0.17800
H434        H  0.62517636  0.92777687  0.80742937     0.17800
H435        H  0.69896335  0.76190219  0.69176520     0.17900
H436        H  0.63608853  0.92801453  0.69576841     0.17800
O437        O  0.16573910  0.18176629  0.99576630    -0.79200
O438        O  0.93771432  0.02617661  0.99848904    -0.63900
O439        O  0.06922795  0.12075700  0.51881386    -1.10500
C440        C  0.16675313  0.95396754  0.52543629     1.07700
O441        O  0.96342336  0.95164747  0.52517780    -0.77100
O442        O  0.03091661  0.00641246  0.57258303    -0.64700
Ni443      Ni  0.08491013  0.17932769  0.98770780     1.34900
C444        C  0.06852877  0.04159369  0.58347640     0.86400
O445        O  0.95410638  0.13782227  0.01398885    -0.77600
O446        O  0.00515809  0.18813176  0.97700945    -0.87900
C447        C  0.92663058  0.97809168  0.50937688     0.86000
O448        O  0.09563275  0.12709812  0.94920648    -0.66100
O449        O  0.12277584  0.94728039  0.54535775    -0.85400
C450        C  0.05750868  0.09203399  0.93879306     0.86800
C451        C  0.96125898  0.18186381  0.99715928     1.08400
H452        H  0.06009544  0.99819681  0.97976607     0.40200
O453        O  0.05656965  0.01521204  0.50352125    -1.08100
O454        O  0.11319312  0.05490726  0.56510165    -0.64700
Ni455      Ni  0.12283114  0.06067685  0.51441031     1.26300
O456        O  0.01283850  0.07960697  0.95738697    -0.64900
O457        O  0.17327007  0.99770506  0.50834627    -0.77200
C458        C  0.20096399  0.15537538  0.51231137     0.86200
O459        O  0.18883283  0.10820125  0.52450770    -0.64400
Ni460      Ni  0.04341481  0.95501293  0.53390260     1.27400
Ni461      Ni  0.00263997  0.07513471  0.50796710     1.25700
H462        H  0.06571766  0.13588671  0.54275741     0.40800
O463        O  0.16985624  0.15349701  0.73305100    -0.79200
O464        O  0.94036412  0.02389432  0.74310391    -0.63900
O465        O  0.07030091  0.11800504  0.76711197    -1.10500
C466        C  0.16212326  0.94397385  0.77426037     1.07700
O467        O  0.95682306  0.97487270  0.78850947    -0.77100
O468        O  0.04739281  0.98692965  0.82844959    -0.64700
Ni469      Ni  0.09271860  0.17880280  0.73939019     1.34900
C470        C  0.07659850  0.02940121  0.83857156     0.86400
O471        O  0.95463714  0.13692450  0.75399252    -0.77600
O472        O  0.01688158  0.20821731  0.74421318    -0.87900
C473        C  0.92582084  0.98503322  0.76302807     0.86000
O474        O  0.07823480  0.14514195  0.69420391    -0.66100
O475        O  0.11154842  0.92418937  0.77990437    -0.85400
C476        C  0.04944413  0.10234835  0.68426382     0.86800
C477        C  0.96622924  0.18864314  0.75011606     1.08400
H478        H  0.06464896  0.99798447  0.73224775     0.40200
O479        O  0.05728541  0.01344867  0.75586541    -1.08100
O480        O  0.10821119  0.05806503  0.81840696    -0.64700
Ni481      Ni  0.12318980  0.05826054  0.76865821     1.26300
O482        O  0.01884436  0.07332404  0.70470156    -0.64900
O483        O  0.17337292  0.99542351  0.76959521    -0.77200
C484        C  0.20119799  0.14594442  0.75879709     0.86200
O485        O  0.18717729  0.10831767  0.77977791    -0.64400
Ni486      Ni  0.03508071  0.95214343  0.78331513     1.27400
Ni487      Ni  0.00443338  0.07344470  0.75449735     1.26100
H488        H  0.06303328  0.13373996  0.79071793     0.40800
C489        C  0.27036400  0.77562037  0.98261022     0.31700
C490        C  0.26695674  0.77975594  0.55426547     0.31700
C491        C  0.25363542  0.83453337  0.50200335    -0.04500
C492        C  0.22626841  0.73712393  0.49950821    -0.05300
C493        C  0.32693672  0.76460133  0.49926572    -0.05100
C494        C  0.25236900  0.83486247  0.53860630    -0.04500
C495        C  0.22517459  0.73780412  0.53605205    -0.05300
C496        C  0.32526374  0.76580986  0.53612629    -0.05200
C497        C  0.22387911  0.88189027  0.55095560    -0.30500
N498        N  0.20933020  0.91135256  0.52325570     0.16000
C499        C  0.22659231  0.88232294  0.49318523    -0.30500
H500        H  0.21534832  0.88907118  0.96631719     0.17900
C501        C  0.18489234  0.69806271  0.54607977    -0.29500
N502        N  0.16168228  0.67343821  0.51665831     0.14700
C503        C  0.19044348  0.69179453  0.98742026    -0.29500
C504        C  0.36928496  0.73335531  0.54591244    -0.29800
N505        N  0.39906109  0.71345478  0.51688351     0.15200
H506        H  0.37498481  0.71982704  0.57218133     0.17800
C507        C  0.37255337  0.72781550  0.98837777    -0.29800
H508        H  0.38058276  0.71106460  0.96176571     0.17800
H509        H  0.18130693  0.67986365  0.96032002     0.17800
H510        H  0.20975227  0.89113872  0.57795544     0.17900
H511        H  0.17356702  0.68763099  0.57273410     0.17800
C512        C  0.27202224  0.77508451  0.73269237     0.31700
C513        C  0.26747439  0.77523467  0.80411567     0.31700
C514        C  0.25513357  0.83044308  0.75204617    -0.04500
C515        C  0.22909558  0.73290445  0.74861442    -0.05300
C516        C  0.32927069  0.76224097  0.74973829    -0.05100
C517        C  0.25273658  0.83034673  0.78866700    -0.04500
C518        C  0.22692142  0.73294624  0.78514169    -0.05300
C519        C  0.32647645  0.76282346  0.78655189    -0.05200
C520        C  0.22239224  0.87629229  0.80081882    -0.30500
N521        N  0.20800118  0.90533005  0.77296132     0.16000
C522        C  0.22668816  0.87700614  0.74306032    -0.30500
H523        H  0.21426804  0.88574317  0.71682797     0.17900
C524        C  0.18621341  0.69312886  0.79447304    -0.29500
N525        N  0.16374660  0.66910959  0.76464781     0.14700
C526        C  0.18948690  0.69304755  0.73649421    -0.29500
C527        C  0.37181690  0.73269624  0.79675874    -0.29800
N528        N  0.40310526  0.71441904  0.76792163     0.15200
H529        H  0.37730190  0.71897875  0.82300905     0.17800
C530        C  0.37665710  0.73086636  0.73901437    -0.29800
H531        H  0.38630855  0.71500129  0.71239502     0.17800
H532        H  0.18011396  0.68229149  0.70928017     0.17800
H533        H  0.20621977  0.88443852  0.82753031     0.17900
H534        H  0.17382149  0.68250131  0.82093955     0.17800
C535        C  0.38546327  0.25418289  0.55505389     0.31700
C536        C  0.39113277  0.25342497  0.98329698     0.31700
C537        C  0.38875925  0.31250710  0.54027118    -0.04500
C538        C  0.43741302  0.22608742  0.53660670    -0.05300
C539        C  0.33457014  0.22522889  0.53634540    -0.05100
C540        C  0.39876166  0.30990383  0.00354209    -0.04500
C541        C  0.43846186  0.21920296  0.99785344    -0.05300
C542        C  0.33670205  0.22799705  0.99988036    -0.05200
C543        C  0.43463202  0.35468629  0.99580148    -0.30500
N544        N  0.44300415  0.38600605  0.52562433     0.16000
C545        C  0.42005016  0.35853442  0.55288526    -0.30500
H546        H  0.43053410  0.36793540  0.58008546     0.17900
C547        C  0.49415456  0.21043586  0.98615464    -0.29500
N548        N  0.52544009  0.20629105  0.51764552     0.14700
C549        C  0.49140596  0.21369961  0.54690480    -0.29500
C550        C  0.28882444  0.20016898  0.98728920    -0.29800
N551        N  0.25790120  0.17912013  0.51520170     0.15200
H552        H  0.27711651  0.19481931  0.96001217     0.17800
C553        C  0.28514440  0.19521306  0.54531726    -0.29800
H554        H  0.26931467  0.18729399  0.57163685     0.17800
H555        H  0.50550104  0.21206518  0.57362426     0.17800
H556        H  0.44940858  0.36554959  0.96977857     0.17900
H557        H  0.51085344  0.21288424  0.95941399     0.17800
C558        C  0.37458709  0.25517161  0.80539269     0.31700
C559        C  0.38126682  0.25786145  0.73423189     0.31700
C560        C  0.39167598  0.31166390  0.79090163    -0.04500
C561        C  0.41824604  0.21603267  0.78693278    -0.05300
C562        C  0.31858478  0.23850393  0.78672868    -0.05100
C563        C  0.39580715  0.31274134  0.75429638    -0.04500
C564        C  0.42168061  0.21751626  0.74994613    -0.05300
C565        C  0.32221862  0.24082986  0.74992833    -0.05200
C566        C  0.43144013  0.35731631  0.74656136    -0.30500
N567        N  0.44625484  0.38473154  0.77708429     0.16000
C568        C  0.42276643  0.35711551  0.80429642    -0.30500
H569        H  0.43090993  0.36731155  0.83174746     0.17900
C570        C  0.43842319  0.16587834  0.73709256    -0.29500
N571        N  0.44582925  0.13410697  0.76447154     0.14700
C572        C  0.43258032  0.16315069  0.79477889    -0.29500
C573        C  0.28069733  0.20473819  0.73653584    -0.29800
N574        N  0.25177137  0.18064938  0.76329742     0.15200
H575        H  0.27455675  0.19380870  0.70893215     0.17800
C576        C  0.27559845  0.19930821  0.79392598    -0.29800
H577        H  0.26412736  0.18400859  0.81945403     0.17800
H578        H  0.42843003  0.14557924  0.82031039     0.17800
H579        H  0.44685215  0.36808891  0.72064349     0.17900
H580        H  0.43971346  0.15084055  0.70976761     0.17800
O581        O  0.70622566  0.51088194  0.99009677    -0.79200
O582        O  0.48737667  0.67053680  0.50184097    -0.63900
O583        O  0.61613705  0.57747666  0.51650345    -1.10500
C584        C  0.47557606  0.43729475  0.52856272     1.07700
O585        O  0.42209868  0.62716090  0.53541729    -0.77100
O586        O  0.49390914  0.57690256  0.57802401    -0.64700
Ni587      Ni  0.68130054  0.58526550  0.98453965     1.34900
C588        C  0.53759597  0.55115755  0.58675849     0.86400
O589        O  0.60030571  0.69076631  0.01428556    -0.77600
O590        O  0.66813274  0.66220770  0.97577315    -0.87900
C591        C  0.43818836  0.66808312  0.51757528     0.86000
O592        O  0.63444357  0.55989482  0.94684525    -0.66100
O593        O  0.45717285  0.47552480  0.54989721    -0.85400
C594        C  0.58972158  0.58386941  0.93800496     0.86800
C595        C  0.64568068  0.70004023  0.99588403     1.08400
H596        H  0.49666629  0.54669579  0.98366915     0.40200
O597        O  0.50787622  0.55656971  0.50699654    -1.08100
O598        O  0.56366757  0.51588033  0.56590801    -0.64700
Ni599      Ni  0.57109783  0.50932567  0.51444789     1.26300
O600        O  0.56220858  0.61826853  0.95864466    -0.64900
O601        O  0.52185726  0.44389353  0.51041372    -0.77200
C602        C  0.68655700  0.46625191  0.50594231     0.86200
O603        O  0.63649630  0.46253678  0.52056214    -0.64400
Ni604      Ni  0.44530279  0.55230883  0.54096848     1.27400
Ni605      Ni  0.55275059  0.62435236  0.50857735     1.26100
H606        H  0.63012164  0.58584596  0.53981609     0.40800
O607        O  0.70373905  0.50601626  0.74033368    -0.79200
O608        O  0.49133009  0.67151768  0.75327393    -0.63900
O609        O  0.61809878  0.57646383  0.76753314    -1.10500
C610        C  0.47684642  0.43697131  0.77981648     1.07700
O611        O  0.42478880  0.62785019  0.78592527    -0.77100
O612        O  0.49350858  0.57622274  0.82904176    -0.64700
Ni613      Ni  0.68070516  0.58019511  0.73356952     1.34900
C614        C  0.53745822  0.55103514  0.83782388     0.86400
O615        O  0.60564832  0.68921404  0.76317827    -0.77600
O616        O  0.66876344  0.65626997  0.72328582    -0.87900
C617        C  0.44189615  0.66904971  0.76866780     0.86000
O618        O  0.63212755  0.55448501  0.69679600    -0.66100
O619        O  0.45619847  0.47545492  0.80012028    -0.85400
C620        C  0.58899254  0.58070260  0.68767450     0.86800
C621        C  0.65118807  0.69516509  0.74428366     1.08400
H622        H  0.49540932  0.54865234  0.73471365     0.40200
O623        O  0.50970348  0.55693317  0.75799477    -1.08100
O624        O  0.56420718  0.51613254  0.81710282    -0.64700
Ni625      Ni  0.57219651  0.50914667  0.76575189     1.26300
O626        O  0.56320103  0.61662079  0.70822734    -0.64900
O627        O  0.52308688  0.44413992  0.76187127    -0.77200
C628        C  0.68648594  0.46474485  0.75744801     0.86200
O629        O  0.63665760  0.46194991  0.77230818    -0.64400
Ni630      Ni  0.44618321  0.55267516  0.79130861     1.27400
Ni631      Ni  0.55574235  0.62428990  0.75969635     1.26100
H632        H  0.63266001  0.58470687  0.79076529     0.40800
C633        C  0.55645141  0.56175972  0.87304503    -0.11600
C634        C  0.57073927  0.57252121  0.90283557    -0.13100
C635        C  0.55659784  0.56113565  0.62214538    -0.11600
C636        C  0.57044041  0.57067790  0.65220196    -0.13100
C637        C  0.38940115  0.25475411  0.94450302    -0.16800
C638        C  0.38418112  0.25497640  0.91294234     0.07300
C639        C  0.37713318  0.25482897  0.87596855     0.09100
C640        C  0.37333624  0.25475942  0.84429333    -0.17700
C641        C  0.38370078  0.25382179  0.59401653    -0.16800
C642        C  0.38396068  0.25525883  0.62591546     0.07300
C643        C  0.38456656  0.25758445  0.66336668     0.09100
C644        C  0.38412559  0.25887351  0.69527536    -0.17700
C645        C  0.26576266  0.77516227  0.84297690    -0.16800
C646        C  0.26664364  0.77486127  0.87475018     0.07300
C647        C  0.26894187  0.77469117  0.91198816     0.09100
C648        C  0.27057826  0.77493474  0.94375641    -0.17700
C649        C  0.26650886  0.78020181  0.59318618    -0.16800
C650        C  0.26838036  0.77934864  0.62493270     0.07300
C651        C  0.27137031  0.77743433  0.66211018     0.09100
C652        C  0.27300654  0.77579882  0.69382659    -0.17700
C653        C  0.06456360  0.06671722  0.90427577    -0.11600
C654        C  0.07154694  0.04769613  0.87471181    -0.13100
C655        C  0.06098338  0.06582736  0.61829214    -0.11600
C656        C  0.05391328  0.08416820  0.64803339    -0.13100
C657        C  0.56189810  0.96100521  0.75197828    -0.16800
C658        C  0.52050264  0.98951264  0.75393340     0.07300
C659        C  0.48336333  0.03410705  0.75801803     0.09100
C660        C  0.46255211  0.07901321  0.76147565    -0.17700
C661        C  0.58084706  0.18553884  0.51700562    -0.16800
C662        C  0.62389844  0.15920487  0.51619086     0.07300
C663        C  0.66138327  0.11460372  0.51457551     0.09100
C664        C  0.67991482  0.06857094  0.51251734    -0.17700
C665        C  0.74048605  0.87545143  0.82642740    -0.16800
C666        C  0.74141580  0.87763143  0.85828268     0.07300
C667        C  0.74391181  0.88049094  0.89561635     0.09100
C668        C  0.74544278  0.88251821  0.92745173    -0.17700
C669        C  0.75262035  0.87459331  0.67696104    -0.16800
C670        C  0.75011302  0.87477129  0.64514320     0.07300
C671        C  0.74508991  0.87554214  0.60791780     0.09100
C672        C  0.74159067  0.87700502  0.57621737    -0.17700
C673        C  0.00573651  0.50765939  0.76001140    -0.16800
C674        C  0.04197027  0.54504961  0.76095260     0.07300
C675        C  0.08461032  0.58897309  0.76212895     0.09100
C676        C  0.12109042  0.62613924  0.76321416    -0.17700
C677        C  0.11956105  0.62998164  0.51596619    -0.16800
C678        C  0.08355747  0.59239126  0.51550329     0.07300
C679        C  0.04148369  0.54796964  0.51485390     0.09100
C680        C  0.00576042  0.51012637  0.51383250    -0.17700
C681        C  0.85684182  0.35921792  0.83143965    -0.16800
C682        C  0.85910501  0.35983991  0.86322135     0.07300
C683        C  0.86264367  0.36020691  0.90045844     0.09100
C684        C  0.86458990  0.35994358  0.93221490    -0.17700
C685        C  0.85530961  0.35671098  0.58098728    -0.16800
C686        C  0.85656610  0.35594377  0.61280224     0.07300
C687        C  0.85886052  0.35568195  0.65015540     0.09100
C688        C  0.86012429  0.35604172  0.68201126    -0.17700
loop_ 
_geom_bond_atom_site_label_1 
_geom_bond_atom_site_label_2 
_geom_bond_distance 
_geom_bond_site_symmetry_2 
_ccdc_geom_bond_type 
C1            C3   1.536       .  S
C1            C5   1.538       .  S
C1            C4   1.537       .  S
C1          C340   1.481       .  S
C2            C6   1.549       .  S
C2            C8   1.550       .  S
C2            C7   1.540       .  S
C2          C341   1.479       .  S
C3           C11   1.380       .  A
C3          C350   1.392       .  A
C4           C15   1.383       .  A
C4          C351   1.391       .  A
C5           C19   1.378       .  A
C5          C352   1.402       .  A
C6            C9   1.391       .  A
C6          C347   1.394   1_554  A
C7           C13   1.384       .  A
C7          C348   1.391   1_554  A
C8           C16   1.396       .  A
C8          C349   1.402   1_554  A
C9           H22   1.082       .  S
C9          N354   1.365   1_554  A
N10          C11   1.362       .  A
N10         C353   1.365       .  A
N10         C107   1.445       .  S
C11          H12   1.083       .  S
C13          H23   1.083       .  S
C13          N14   1.360       .  A
N14         C359   1.358   1_554  A
N14         C336   1.412   1_655  S
C15          H21   1.082       .  S
C15         N358   1.359       .  A
C16          H18   1.082       .  S
C16          N17   1.363       .  A
N17         C363   1.356   1_554  A
N17         C258   1.442       .  S
C19          H20   1.083       .  S
C19         N361   1.358       .  A
C24          C26   1.534       .  S
C24          C28   1.534       .  S
C24          C27   1.539       .  S
C24         C344   1.479       .  S
C25          C29   1.547       .  S
C25          C31   1.548       .  S
C25          C30   1.540       .  S
C25         C337   1.480       .  S
C26          C34   1.379       .  A
C26          C29   1.397       .  A
C27          C38   1.385       .  A
C27          C30   1.390       .  A
C28          C42   1.374       .  A
C28          C31   1.398       .  A
C29          C32   1.387       .  A
C30          C36   1.384       .  A
C31          C39   1.392       .  A
C32          H45   1.083       .  S
C32          N33   1.362       .  A
N33          C34   1.357       .  A
N33         C133   1.436       .  S
C34          H35   1.083       .  S
C36          H46   1.082       .  S
C36          N37   1.360       .  A
N37          C38   1.360       .  A
N37         C329   1.416   1_655  S
C38          H44   1.082       .  S
C39          H41   1.082       .  S
C39          N40   1.363       .  A
N40          C42   1.357       .  A
N40         C284   1.439       .  S
C42          H43   1.083       .  S
C47          C49   1.525       .  S
C47          C51   1.534       .  S
C47          C50   1.534       .  S
C47         C328   1.484       .  S
C48          C52   1.535       .  S
C48          C54   1.541       .  S
C48          C53   1.533       .  S
C48         C324   1.482       .  S
C49          C57   1.379       .  A
C49         C396   1.385   1_554  A
C50          C61   1.378       .  A
C50         C397   1.416   1_554  A
C51          C65   1.375       .  A
C51         C398   1.412   1_554  A
C52          C55   1.382       .  A
C52         C393   1.387       .  A
C53          C59   1.376       .  A
C53         C394   1.416       .  A
C54          C62   1.394       .  A
C54         C395   1.411       .  A
C55          H68   1.083       .  S
C55         N400   1.359       .  A
N56          C57   1.358   1_556  A
N56         C399   1.360       .  A
N56         C595   1.434       .  S
C57          H58   1.082       .  S
C59          H69   1.083       .  S
C59         N404   1.347   1_565  A
N60          C61   1.348   1_545  A
N60         C403   1.346   1_544  A
N60         C320   1.393       .  S
C61          H67   1.083   1_565  S
C62          H64   1.082       .  S
C62         N407   1.356       .  A
N63          C65   1.350       .  A
N63         C406   1.356   1_554  A
N63         C103   1.433       .  S
C65          H66   1.083       .  S
C70          C72   1.534       .  S
C70          C74   1.528       .  S
C70          C73   1.528       .  S
C70         C321   1.482       .  S
C71          C75   1.546       .  S
C71          C77   1.539       .  S
C71          C76   1.532       .  S
C71         C325   1.483       .  S
C72          C80   1.385       .  A
C72          C75   1.412       .  A
C73          C84   1.373       .  A
C73          C76   1.406       .  A
C74          C88   1.373       .  A
C74          C77   1.388       .  A
C75          C78   1.386       .  A
C76          C82   1.376       .  A
C77          C85   1.389       .  A
C78          H91   1.083       .  S
C78          N79   1.355       .  A
N79          C80   1.352       .  A
N79         C277   1.436       .  S
C80          H81   1.083       .  S
C82          H92   1.083       .  S
C82          N83   1.350       .  A
N83          C84   1.350       .  A
N83         C313   1.393       .  S
C84          H90   1.083       .  S
C85          H87   1.082       .  S
C85          N86   1.363       .  A
N86          C88   1.357       .  A
N86         C129   1.439       .  S
C88          H89   1.083       .  S
O93         Ni99   1.919       .  S
O93         C458   1.270       .  A
O94        Ni461   1.941   1_655  S
O94         C447   1.278   1_545  A
O95        Ni117   1.918       .  S
O95        Ni111   1.935       .  S
O95        Ni443   1.919   1_554  S
O95         H118   0.966       .  S
C96         N154   1.444       .  S
C96         O113   1.275       .  A
C96         O105   1.267       .  A
O97        Ni116   1.904   1_655  S
O97         C103   1.268       .  A
O98        Ni116   1.892   1_545  S
O98         C100   1.266       .  A
Ni99        O102   1.931       .  S
Ni99        O104   1.893       .  S
Ni99        O439   1.919       .  S
C100        O110   1.278       .  A
C100        C311   1.428       .  S
O101       Ni461   1.945   1_655  S
O101        C107   1.276       .  A
O102        C107   1.269   1_455  A
C103        O438   1.277   1_564  A
O104        C106   1.267       .  A
O105       Ni116   1.928       .  S
C106        O112   1.278       .  A
C106        C309   1.427       .  S
H108        O453   0.965       .  S
O109       Ni117   1.932       .  S
O109       Ni111   1.913       .  S
O109       Ni116   1.917   1_545  S
O109        H452   0.966   1_544  S
O110       Ni111   1.949       .  S
Ni111       O115   1.932       .  S
Ni111       O113   1.945   1_545  S
O112       Ni461   1.947       .  S
C114        N207   1.435       .  S
C114        O115   1.275       .  A
C114        O437   1.270   1_554  A
Ni117       O438   1.938   1_454  S
Ni117       O445   1.945   1_455  S
Ni117       O456   1.945   1_554  S
O119       Ni125   1.913       .  S
O119        C140   1.265       .  A
O120       Ni143   1.935   1_655  S
O120        C129   1.272   1_545  A
O121       Ni125   1.909       .  S
O121       Ni143   1.912       .  S
O121       Ni137   1.922       .  S
O121        H144   0.968       .  S
C122        N177   1.435       .  S
C122        O139   1.281       .  A
C122        O131   1.274       .  A
O123       Ni142   1.922   1_655  S
O123        C129   1.268       .  A
O124       Ni142   1.899       .  S
O124        C126   1.264   1_565  A
Ni125       O128   1.917       .  S
Ni125       O130   1.899       .  S
C126        O136   1.268       .  A
C126        C310   1.427       .  S
O127       Ni143   1.945   1_655  S
O127        C133   1.284       .  A
O128        C133   1.275   1_455  A
O130        C132   1.263       .  A
O131       Ni142   1.920       .  S
C132        O138   1.267       .  A
C132        C312   1.428       .  S
H134        O135   0.966       .  S
O135       Ni143   1.925       .  S
O135       Ni137   1.921       .  S
O135       Ni142   1.912   1_545  S
O136       Ni137   1.920       .  S
Ni137       O141   1.940       .  S
Ni137       O139   1.939   1_545  S
O138       Ni143   1.920       .  S
C140        N230   1.438       .  S
C140        O141   1.272       .  A
C145        C491   1.547       .  S
C145        C493   1.550       .  S
C145        C492   1.542       .  S
C145        C304   1.480       .  S
C146        C150   1.536       .  S
C146        C152   1.539       .  S
C146        C151   1.536       .  S
C146        C305   1.483       .  S
C147        C489   1.545   1_554  S
C147        C155   1.390   1_554  A
C147        C150   1.391       .  A
C148        C489   1.539       .  S
C148        C151   1.391   1_556  A
C148        C503   1.383       .  A
C149        C489   1.549       .  S
C149        C152   1.407   1_556  A
C149        C507   1.394       .  A
C150        C153   1.380       .  A
C151        C157   1.381       .  A
C152        C160   1.379       .  A
C153        H166   1.083       .  S
C153        N154   1.362       .  A
N154        C155   1.364   1_554  A
C155        H500   1.083       .  S
H156        C499   1.083       .  S
C157        H167   1.082       .  S
C157        N158   1.359       .  A
N158        C503   1.359   1_554  A
N158        C333   1.412       .  S
C159        C492   1.385       .  A
C159        H165   1.082       .  S
C159        N502   1.361       .  A
C160        H162   1.083       .  S
C160        N161   1.355       .  A
N161        C507   1.360   1_554  A
N161        C247   1.441       .  S
C163        C493   1.395       .  A
C163        H164   1.082       .  S
C163        N505   1.362       .  A
C168        C170   1.544       .  S
C168        C172   1.547       .  S
C168        C171   1.541       .  S
C168        C308   1.482       .  S
C169        C173   1.535       .  S
C169        C175   1.537       .  S
C169        C174   1.538       .  S
C169        C301   1.481       .  S
C170        C178   1.384       .  A
C170        C173   1.395       .  A
C171        C182   1.384       .  A
C171        C174   1.390       .  A
C172        C186   1.390       .  A
C172        C175   1.402       .  A
C173        C176   1.379       .  A
C174        C180   1.384       .  A
C175        C183   1.376       .  A
C176        H189   1.083       .  S
C176        N177   1.359       .  A
N177        C178   1.362       .  A
C178        H179   1.083       .  S
C180        H190   1.082       .  S
C180        N181   1.360       .  A
N181        C182   1.360       .  A
N181        C332   1.416       .  S
C182        H188   1.082       .  S
C183        H185   1.083       .  S
C183        N184   1.357       .  A
N184        C186   1.361       .  A
N184        C273   1.438       .  S
C186        H187   1.082       .  S
C191        C193   1.544       .  S
C191        C195   1.537       .  S
C191        C194   1.535       .  S
C191        C297   1.483       .  S
C192        C196   1.538       .  S
C192        C198   1.532       .  S
C192        C197   1.529       .  S
C192        C293   1.486       .  S
C193        C201   1.386       .  A
C193        C540   1.411       .  A
C194        C205   1.376       .  A
C194        C541   1.409   1_554  A
C195        C209   1.389       .  A
C195        C542   1.387   1_554  A
C196        C199   1.388       .  A
C196        C537   1.417       .  A
C197        C203   1.374       .  A
C197        C538   1.401       .  A
C198        C206   1.374       .  A
C198        C539   1.388       .  A
C199        H212   1.083       .  S
C199        N544   1.352       .  A
N200        C201   1.354       .  A
N200        C543   1.354   1_554  A
N200        C240   1.437       .  S
C201        H202   1.083       .  S
C203        H213   1.083       .  S
C203        N548   1.353       .  A
N204        C205   1.350       .  A
N204        C547   1.349   1_554  A
N204        C317   1.393       .  S
C205        H211   1.083       .  S
C206        H208   1.083       .  S
C206        N551   1.358       .  A
N207        C209   1.363       .  A
N207        C550   1.356   1_554  A
C209        H210   1.082       .  S
C214        C216   1.537       .  S
C214        C218   1.544       .  S
C214        C217   1.533       .  S
C214        C296   1.486       .  S
C215        C219   1.524       .  S
C215        C221   1.538       .  S
C215        C220   1.530       .  S
C215        C300   1.484       .  S
C216        C224   1.381       .  A
C216        C219   1.387       .  A
C217        C228   1.378       .  A
C217        C220   1.412       .  A
C218        C232   1.394       .  A
C218        C221   1.414       .  A
C219        C222   1.379       .  A
C220        C226   1.374       .  A
C221        C229   1.377       .  A
C222        H235   1.083       .  S
C222        N223   1.358       .  A
N223        C224   1.360       .  A
N223        C266   1.434       .  S
C224        H225   1.082       .  S
C226        H236   1.083       .  S
C226        N227   1.347       .  A
N227        C228   1.349       .  A
N227        C316   1.393       .  S
C228        H234   1.083       .  S
C229        H231   1.083       .  S
C229        N230   1.351       .  A
N230        C232   1.356       .  A
C232        H233   1.082       .  S
O237       Ni243   1.920       .  S
O237        C602   1.271       .  A
O238       Ni261   1.934       .  S
O238        C247   1.275       .  A
O239       Ni261   1.918       .  S
O239       Ni255   1.922       .  S
O239       Ni587   1.920   1_554  S
O239        H262   0.965       .  S
C240        O257   1.271       .  A
C240        O249   1.269       .  A
O241       Ni260   1.924       .  S
O241        C247   1.272       .  A
O242       Ni260   1.896       .  S
O242        C244   1.268       .  A
Ni243       O246   1.936       .  S
Ni243       O248   1.894       .  S
Ni243       O583   1.924       .  S
C244        O254   1.280       .  A
C244        C291   1.434       .  S
O245       Ni605   1.915       .  S
O245        C251   1.269       .  A
O246        C251   1.269       .  A
O248        C250   1.267       .  A
O249       Ni260   1.935       .  S
C250        O256   1.280       .  A
C250        C290   1.433       .  S
C251        N400   1.432       .  S
H252        O597   0.966       .  S
O253       Ni261   1.922       .  S
O253       Ni255   1.920       .  S
O253       Ni260   1.922       .  S
O253        H596   0.966   1_554  S
O254       Ni255   1.954       .  S
Ni255       O259   1.938       .  S
Ni255       O257   1.928       .  S
O256       Ni605   1.956       .  S
C258        O259   1.276       .  A
C258        O581   1.272   1_554  A
Ni261       O589   1.921       .  S
Ni261       O600   1.954   1_554  S
O263       Ni269   1.918       .  S
O263        C284   1.270       .  A
O264       Ni287   1.932       .  S
O264        C273   1.274       .  A
O265       Ni269   1.924       .  S
O265       Ni287   1.918       .  S
O265       Ni281   1.925       .  S
O265        H288   0.965       .  S
C266        O283   1.272       .  A
C266        O275   1.270       .  A
O267       Ni286   1.919       .  S
O267        C273   1.269       .  A
O268       Ni286   1.892       .  S
O268        C270   1.264       .  A
Ni269       O272   1.931       .  S
Ni269       O274   1.895       .  S
C270        O280   1.277       .  A
C270        C289   1.433       .  S
O271       Ni287   1.928       .  S
O271        C277   1.272       .  A
O272        C277   1.268       .  A
O274        C276   1.267       .  A
O275       Ni286   1.931       .  S
C276        O282   1.279       .  A
C276        C292   1.434       .  S
H278        O279   0.966       .  S
O279       Ni287   1.922       .  S
O279       Ni281   1.921       .  S
O279       Ni286   1.926       .  S
O280       Ni281   1.948       .  S
Ni281       O285   1.935       .  S
Ni281       O283   1.922       .  S
O282       Ni287   1.955       .  S
C284        O285   1.275       .  A
C289        C290   1.205       .  T
C291        C292   1.205       .  T
C293        C294   1.215       .  T
C294        C295   1.427       .  S
C295        C296   1.215       .  T
C297        C298   1.214       .  T
C298        C299   1.425       .  S
C299        C300   1.214       .  T
C301        C302   1.212       .  T
C302        C303   1.422       .  S
C303        C304   1.212       .  T
C305        C306   1.214       .  T
C306        C307   1.425       .  S
C307        C308   1.214       .  T
C309        C310   1.201       .  T
C311        C312   1.202       .  T
C313        C314   1.198       .  T
C314        C315   1.399   1_565  S
C315        C316   1.198       .  T
C317        C318   1.198       .  T
C318        C319   1.398       .  S
C319        C320   1.198       .  T
C321        C322   1.213       .  T
C322        C323   1.423       .  S
C323        C324   1.213       .  T
C325        C326   1.214       .  T
C326        C327   1.425       .  S
C327        C328   1.214       .  T
C329        C330   1.218       .  T
C330        C331   1.432       .  S
C331        C332   1.218       .  T
C333        C334   1.214       .  T
C334        C335   1.426       .  S
C335        C336   1.214       .  T
C337        C338   1.212       .  T
C338        C339   1.423       .  S
C339        C340   1.212       .  T
C341        C342   1.211       .  T
C342        C343   1.421       .  S
C343        C344   1.211       .  T
C345        C347   1.536       .  S
C345        C349   1.537       .  S
C345        C348   1.536       .  S
C345        C684   1.481       .  S
C346        C350   1.549       .  S
C346        C352   1.553       .  S
C346        C351   1.544       .  S
C346        C685   1.484       .  S
C347        C355   1.381       .  A
C348        C359   1.381       .  A
C349        C363   1.377       .  A
C350        C353   1.390       .  A
C351        C357   1.387       .  A
C352        C360   1.396       .  A
C353        H366   1.082       .  S
N354        C355   1.361       .  A
N354        C451   1.446       .  S
C355        H356   1.083       .  S
C357        H367   1.082       .  S
C357        N358   1.361       .  A
N358        C680   1.416   1_655  S
C359        H365   1.082       .  S
C360        H362   1.082       .  S
C360        N361   1.364       .  A
N361        C602   1.445       .  S
C363        H364   1.083       .  S
C368        C370   1.534       .  S
C368        C372   1.538       .  S
C368        C371   1.540       .  S
C368        C688   1.485       .  S
C369        C373   1.544       .  S
C369        C375   1.547       .  S
C369        C374   1.540       .  S
C369        C681   1.481       .  S
C370        C378   1.378       .  A
C370        C373   1.396       .  A
C371        C382   1.385       .  A
C371        C374   1.391       .  A
C372        C386   1.375       .  A
C372        C375   1.402       .  A
C373        C376   1.385       .  A
C374        C380   1.384       .  A
C375        C383   1.392       .  A
C376        H389   1.083       .  S
C376        N377   1.362       .  A
N377        C378   1.358       .  A
N377        C477   1.435       .  S
C378        H379   1.083       .  S
C380        H390   1.082       .  S
C380        N381   1.360       .  A
N381        C382   1.361       .  A
N381        C673   1.416   1_655  S
C382        H388   1.082       .  S
C383        H385   1.082       .  S
C383        N384   1.361       .  A
N384        C386   1.357       .  A
N384        C628   1.438       .  S
C386        H387   1.083       .  S
C391        C393   1.524       .  S
C391        C395   1.534       .  S
C391        C394   1.534       .  S
C391        C672   1.488       .  S
C392        C396   1.534       .  S
C392        C398   1.542       .  S
C392        C397   1.532       .  S
C392        C668   1.482       .  S
C393        C401   1.376       .  A
C394        C405   1.378       .  A
C395        C409   1.374       .  A
C396        C399   1.381       .  A
C397        C403   1.377       .  A
C398        C406   1.394       .  A
C399        H412   1.082       .  S
N400        C401   1.357       .  A
C401        H402   1.082       .  S
C403        H413   1.083       .  S
N404        C405   1.348   1_545  A
N404        C664   1.394       .  S
C405        H411   1.083       .  S
C406        H408   1.082       .  S
N407        C409   1.351       .  A
N407        C447   1.433       .  S
C409        H410   1.083       .  S
C414        C416   1.532       .  S
C414        C418   1.525       .  S
C414        C417   1.524       .  S
C414        C665   1.482       .  S
C415        C419   1.547       .  S
C415        C421   1.540       .  S
C415        C420   1.528       .  S
C415        C669   1.487       .  S
C416        C424   1.384       .  A
C416        C419   1.419       .  A
C417        C428   1.368       .  A
C417        C420   1.397       .  A
C418        C432   1.370       .  A
C418        C421   1.391       .  A
C419        C422   1.385       .  A
C420        C426   1.372       .  A
C421        C429   1.388       .  A
C422        H435   1.083       .  S
C422        N423   1.353       .  A
N423        C424   1.350       .  A
N423        C621   1.432       .  S
C424        H425   1.083       .  S
C426        H436   1.083       .  S
C426        N427   1.353       .  A
N427        C428   1.352       .  A
N427        C657   1.390       .  S
C428        H434   1.083       .  S
C429        H431   1.082       .  S
C429        N430   1.363       .  A
N430        C432   1.355       .  A
N430        C473   1.435       .  S
C432        H433   1.083       .  S
O437       Ni443   1.915       .  S
O439       Ni461   1.920       .  S
O439       Ni455   1.932       .  S
O439        H462   0.965       .  S
C440        N498   1.443       .  S
C440        O457   1.273       .  A
C440        O449   1.267       .  A
O441       Ni460   1.901   1_655  S
O441        C447   1.267       .  A
O442       Ni460   1.892   1_545  S
O442        C444   1.267       .  A
Ni443       O446   1.933       .  S
Ni443       O448   1.893       .  S
C444        O454   1.278       .  A
C444        C655   1.427       .  S
O445        C451   1.275   1_554  A
O446        C451   1.269   1_455  A
O448        C450   1.267       .  A
O449       Ni460   1.928       .  S
C450        O456   1.278       .  A
C450        C653   1.425       .  S
O453       Ni461   1.934       .  S
O453       Ni455   1.912       .  S
O453       Ni460   1.919   1_545  S
O454       Ni455   1.949       .  S
Ni455       O459   1.929       .  S
Ni455       O457   1.942   1_545  S
C458        N551   1.435       .  S
C458        O459   1.274       .  A
O463       Ni469   1.914       .  S
O463        C484   1.265       .  A
O464       Ni487   1.932   1_655  S
O464        C473   1.271   1_545  A
O465       Ni469   1.906       .  S
O465       Ni487   1.908       .  S
O465       Ni481   1.923       .  S
O465        H488   0.968       .  S
C466        N521   1.433       .  S
C466        O483   1.282       .  A
C466        O475   1.275       .  A
O467       Ni486   1.916   1_655  S
O467        C473   1.266       .  A
O468       Ni486   1.898       .  S
O468        C470   1.263   1_565  A
Ni469       O472   1.918       .  S
Ni469       O474   1.898       .  S
C470        O480   1.267       .  A
C470        C654   1.424       .  S
O471       Ni487   1.944   1_655  S
O471        C477   1.284       .  A
O472        C477   1.276   1_455  A
O474        C476   1.263       .  A
O475       Ni486   1.917       .  S
C476        O482   1.266       .  A
C476        C656   1.426       .  S
H478        O479   0.966   1_565  S
O479       Ni487   1.926       .  S
O479       Ni481   1.914       .  S
O479       Ni486   1.909   1_545  S
O480       Ni481   1.916       .  S
Ni481       O485   1.935       .  S
Ni481       O483   1.939   1_545  S
O482       Ni487   1.916       .  S
C484        N574   1.436       .  S
C484        O485   1.272       .  A
C489        C648   1.479       .  S
C490        C494   1.536       .  S
C490        C496   1.539       .  S
C490        C495   1.538       .  S
C490        C649   1.482       .  S
C491        C499   1.389       .  A
C491        C494   1.393       .  A
C492        C495   1.391       .  A
C493        C496   1.402       .  A
C494        C497   1.380       .  A
C495        C501   1.384       .  A
C496        C504   1.378       .  A
C497        H510   1.083       .  S
C497        N498   1.361       .  A
N498        C499   1.363       .  A
C501        H511   1.082       .  S
C501        N502   1.360       .  A
N502        C677   1.416       .  S
C503        H509   1.083       .  S
C504        H506   1.083       .  S
C504        N505   1.357       .  A
N505        C591   1.443       .  S
C507        H508   1.082       .  S
C512        C514   1.542       .  S
C512        C516   1.547       .  S
C512        C515   1.542       .  S
C512        C652   1.481       .  S
C513        C517   1.534       .  S
C513        C519   1.537       .  S
C513        C518   1.538       .  S
C513        C645   1.480       .  S
C514        C522   1.382       .  A
C514        C517   1.395       .  A
C515        C526   1.385       .  A
C515        C518   1.391       .  A
C516        C530   1.391       .  A
C516        C519   1.401       .  A
C517        C520   1.379       .  A
C518        C524   1.384       .  A
C519        C527   1.375       .  A
C520        H533   1.083       .  S
C520        N521   1.359       .  A
N521        C522   1.360       .  A
C522        H523   1.083       .  S
C524        H534   1.082       .  S
C524        N525   1.360       .  A
N525        C526   1.361       .  A
N525        C676   1.416       .  S
C526        H532   1.082       .  S
C527        H529   1.083       .  S
C527        N528   1.357       .  A
N528        C530   1.362       .  A
N528        C617   1.438       .  S
C530        H531   1.082       .  S
C535        C537   1.543       .  S
C535        C539   1.535       .  S
C535        C538   1.532       .  S
C535        C641   1.484       .  S
C536        C540   1.536   1_556  S
C536        C542   1.527       .  S
C536        C541   1.529       .  S
C536        C637   1.482       .  S
C537        C545   1.384       .  A
C538        C549   1.373       .  A
C539        C553   1.387       .  A
C540        C543   1.387   1_554  A
C541        C547   1.374       .  A
C542        C550   1.372       .  A
C543        H556   1.083       .  S
N544        C545   1.351       .  A
N544        C584   1.435       .  S
C545        H546   1.083       .  S
C547        H557   1.083       .  S
N548        C549   1.353       .  A
N548        C661   1.394       .  S
C549        H555   1.083       .  S
C550        H552   1.083       .  S
N551        C553   1.362       .  A
C553        H554   1.082       .  S
C558        C560   1.536       .  S
C558        C562   1.539       .  S
C558        C561   1.531       .  S
C558        C640   1.482       .  S
C559        C563   1.526       .  S
C559        C565   1.536       .  S
C559        C564   1.529       .  S
C559        C644   1.485       .  S
C560        C568   1.380       .  A
C560        C563   1.396       .  A
C561        C572   1.377       .  A
C561        C564   1.411       .  A
C562        C576   1.390       .  A
C562        C565   1.406       .  A
C563        C566   1.380       .  A
C564        C570   1.373       .  A
C565        C573   1.375       .  A
C566        H579   1.083       .  S
C566        N567   1.355       .  A
N567        C568   1.356       .  A
N567        C610   1.431       .  S
C568        H569   1.083       .  S
C570        H580   1.083       .  S
C570        N571   1.346       .  A
N571        C572   1.348       .  A
N571        C660   1.391       .  S
C572        H578   1.083       .  S
C573        H575   1.083       .  S
C573        N574   1.353       .  A
N574        C576   1.357       .  A
C576        H577   1.082       .  S
O581       Ni587   1.923       .  S
O582       Ni605   1.940       .  S
O582        C591   1.276       .  A
O583       Ni605   1.923       .  S
O583       Ni599   1.925       .  S
O583        H606   0.965       .  S
C584        O601   1.272       .  A
C584        O593   1.268       .  A
O585       Ni604   1.921       .  S
O585        C591   1.271       .  A
O586       Ni604   1.897       .  S
O586        C588   1.268       .  A
Ni587       O590   1.937       .  S
Ni587       O592   1.896       .  S
C588        O598   1.281       .  A
C588        C635   1.438       .  S
O589        C595   1.270   1_554  A
O590        C595   1.270       .  A
O592        C594   1.267       .  A
O593       Ni604   1.929       .  S
C594        O600   1.280       .  A
C594        C634   1.434       .  S
O597       Ni605   1.916       .  S
O597       Ni599   1.921       .  S
O597       Ni604   1.921       .  S
O598       Ni599   1.960       .  S
Ni599       O603   1.945       .  S
Ni599       O601   1.928       .  S
C602        O603   1.278       .  A
O607       Ni613   1.913       .  S
O607        C628   1.269       .  A
O608       Ni631   1.935       .  S
O608        C617   1.276       .  A
O609       Ni613   1.921       .  S
O609       Ni631   1.917       .  S
O609       Ni625   1.919       .  S
O609        H632   0.966       .  S
C610        O627   1.269       .  A
C610        O619   1.268       .  A
O611       Ni630   1.915       .  S
O611        C617   1.270       .  A
O612       Ni630   1.893       .  S
O612        C614   1.266       .  A
Ni613       O616   1.925       .  S
Ni613       O618   1.896       .  S
C614        O624   1.280       .  A
C614        C633   1.434       .  S
O615       Ni631   1.926       .  S
O615        C621   1.271       .  A
O616        C621   1.265       .  A
O618        C620   1.268       .  A
O619       Ni630   1.931       .  S
C620        O626   1.282       .  A
C620        C636   1.438       .  S
H622        O623   0.966       .  S
O623       Ni631   1.922       .  S
O623       Ni625   1.919       .  S
O623       Ni630   1.921       .  S
O624       Ni625   1.957       .  S
Ni625       O629   1.937       .  S
Ni625       O627   1.918       .  S
O626       Ni631   1.962       .  S
C628        O629   1.276       .  A
C633        C634   1.205       .  T
C635        C636   1.208       .  T
C637        C638   1.213       .  T
C638        C639   1.423       .  S
C639        C640   1.213       .  T
C641        C642   1.214       .  T
C642        C643   1.425       .  S
C643        C644   1.214       .  T
C645        C646   1.212       .  T
C646        C647   1.422       .  S
C647        C648   1.212       .  T
C649        C650   1.213       .  T
C650        C651   1.424       .  S
C651        C652   1.213       .  T
C653        C654   1.200       .  T
C655        C656   1.201       .  T
C657        C658   1.196       .  T
C658        C659   1.395   1_565  S
C659        C660   1.196       .  T
C661        C662   1.198       .  T
C662        C663   1.399       .  S
C663        C664   1.198       .  T
C665        C666   1.213       .  T
C666        C667   1.423       .  S
C667        C668   1.213       .  T
C669        C670   1.216       .  T
C670        C671   1.428       .  S
C671        C672   1.216       .  T
C673        C674   1.218       .  T
C674        C675   1.432       .  S
C675        C676   1.218       .  T
C677        C678   1.218       .  T
C678        C679   1.432       .  S
C679        C680   1.218       .  T
C681        C682   1.213       .  T
C682        C683   1.423       .  S
C683        C684   1.213       .  T
C685        C686   1.215       .  T
C686        C687   1.426       .  S
C687        C688   1.214       .  T
