geometry optimzed in LAMMPS
_audit_creation_date              2020-11-30 
_audit_creation_method            'lammps2cif' 
_symmetry_space_group_name_H-M    'P1' 
_symmetry_Int_Tables_number       1 
_symmetry_cell_setting            triclinic 
loop_ 
_symmetry_equiv_pos_as_xyz 
  x,y,z 
_cell_length_a                    51.49750813 
_cell_length_b                    51.655345497590716 
_cell_length_c                    44.505266833820414 
_cell_angle_alpha                 89.92138485882218 
_cell_angle_beta                  90.05199238716061 
_cell_angle_gamma                 120.30857639598236 
loop_ 
_atom_site_label 
_atom_site_type_symbol 
_atom_site_fract_x 
_atom_site_fract_y 
_atom_site_fract_z 
_atom_site_charge 
C1          C  0.21883396  0.22615879  0.15114182     0.04000
C2          C  0.21876157  0.22532248  0.11954452    -0.12100
C3          C  0.23999118  0.25015921  0.10248924     0.01500
C4          C  0.26175717  0.27569907  0.11830025    -0.10700
C5          C  0.26343384  0.27600215  0.14973470     0.04000
C6          C  0.24165350  0.25133724  0.16600576    -0.10100
H7          H  0.20231734  0.20485316  0.10867969     0.09600
H8          H  0.27770302  0.29587030  0.10666615     0.07100
H9          H  0.24258628  0.25165661  0.19032857     0.07000
C10         C  0.21437003  0.22805090  0.02059283     0.04000
C11         C  0.21411024  0.22872307  0.05218364    -0.12100
C12         C  0.23987770  0.24944192  0.06858536     0.01500
C13         C  0.26575938  0.26969836  0.05212509    -0.10700
C14         C  0.26579662  0.27008588  0.02064157     0.04000
C15         C  0.24021964  0.24889479  0.00512871    -0.10100
H16         H  0.19345908  0.21324372  0.06351235     0.09600
H17         H  0.28618020  0.28560561  0.06339016     0.07100
H18         H  0.24084017  0.24856026  0.48075866     0.07000
C19         C  0.24268989  0.46785401  0.15024679     0.04000
C20         C  0.24142034  0.46488638  0.11879464    -0.12100
C21         C  0.21588878  0.46023127  0.10228687     0.01500
C22         C  0.19172355  0.45919519  0.11853220    -0.10700
C23         C  0.19366064  0.46416974  0.14966056     0.04000
C24         C  0.21893273  0.46805477  0.16536028    -0.10100
H25         H  0.26086755  0.46673043  0.10762334     0.09600
H26         H  0.17128842  0.45487303  0.10736427     0.07100
H27         H  0.21966660  0.47054298  0.18956937     0.07000
C28         C  0.23234942  0.44571432  0.02171989     0.04000
C29         C  0.23371823  0.44899787  0.05306442    -0.12100
C30         C  0.21437625  0.45643582  0.06852161     0.01500
C31         C  0.19407597  0.46113000  0.05114860    -0.10700
C32         C  0.19084841  0.45573932  0.01991784     0.04000
C33         C  0.20955402  0.44690853  0.00577277    -0.07500
H34         H  0.25024831  0.44584125  0.06481855     0.09600
H35         H  0.18129540  0.46996790  0.06160941     0.07100
H36         H  0.20661237  0.44087072  0.48196082     0.07000
C37         C  0.49663281  0.24240165  0.15053595     0.04000
C38         C  0.49565754  0.21795947  0.16523626    -0.12100
C39         C  0.49691286  0.19546966  0.14903217     0.01500
C40         C  0.49993656  0.19781611  0.11769308    -0.10700
C41         C  0.49934735  0.22133401  0.10177620     0.04000
C42         C  0.49738295  0.24343228  0.11893271    -0.10100
H43         H  0.49387723  0.21637693  0.18952635     0.09600
H44         H  0.50236353  0.18080249  0.10628580     0.07100
H45         H  0.49695325  0.26196166  0.10831905     0.07000
C46         C  0.51085834  0.25090343  0.02045994     0.04000
C47         C  0.50802457  0.24933914  0.05188467    -0.12100
C48         C  0.50148638  0.22295885  0.06777798     0.01500
C49         C  0.49704879  0.19794062  0.05064209    -0.10700
C50         C  0.50240455  0.19999523  0.01946987     0.04000
C51         C  0.50932538  0.22674725  0.00472992    -0.10100
H52         H  0.51119036  0.26910686  0.06329857     0.09600
H53         H  0.48867210  0.17638915  0.06107796     0.07100
H54         H  0.51272443  0.22895603  0.48065717     0.07000
O55         O  0.01918954  0.41591706  0.36735032    -0.87300
C56         C  0.06726461  0.06848772  0.29090166     1.12800
O57         O  0.48942624  0.44721103  0.33501017    -1.35100
O58         O  0.07567977  0.05081812  0.36932408    -0.88800
O59         O  0.46913282  0.38770787  0.36870220    -0.89400
O60         O  0.45599503  0.44327139  0.39816558    -0.78300
O61         O  0.04815485  0.48210622  0.36427934    -1.00300
C62         C  0.48227540  0.02878410  0.39171018     1.22800
O63         O  0.45343066  0.47337749  0.33540993    -1.35200
Mn64       Mn  0.48668793  0.47741844  0.30291019     1.82100
O65         O  0.48451485  0.00662406  0.39936415    -0.77300
O66         O  0.04706895  0.07193612  0.36777383    -0.86700
C67         C  0.47955092  0.02883220  0.28138999     1.13900
C68         C  0.06906952  0.07018839  0.37833812     1.08600
O69         O  0.45722489  0.44557389  0.27177350    -0.78300
O70         O  0.01575821  0.01032000  0.33588665    -1.32000
O71         O  0.43074141  0.41522016  0.30611404    -0.97500
C72         C  0.39323404  0.46542275  0.37840759     1.07300
Mn73       Mn  0.01346053  0.05046893  0.33550893     1.48600
O74         O  0.39157397  0.44188470  0.36762433    -0.86700
Mn75       Mn  0.45179830  0.40307832  0.33478871     1.49600
O76         O  0.01942630  0.41704347  0.30048843    -0.90600
C77         C  0.04218656  0.48011947  0.39099751     1.20500
C78         C  0.49505897  0.39466547  0.29133038     1.12600
Mn79       Mn  0.48596897  0.47603565  0.36800487     1.81000
O80         O  0.47889959  0.03262969  0.30838568    -0.95700
Mn81       Mn  0.03177800  0.44910481  0.33491953     1.49300
C82         C  0.49512627  0.39420542  0.37801114     1.09100
Mn83       Mn  0.44617236  0.01084815  0.33759191     1.49900
C84         C  0.39598781  0.46796132  0.29061710     1.12000
O85         O  0.43026691  0.41487186  0.36257768    -1.01500
O86         O  0.04512140  0.07051487  0.30069241    -0.91200
C87         C  0.43387084  0.41915809  0.38951806     1.23300
O88         O  0.48042338  0.03291790  0.36500464    -1.01900
O89         O  0.07467961  0.05043875  0.30203093    -0.89300
O90         O  0.41300892  0.99329562  0.30451228    -0.88900
O91         O  0.46950209  0.38790468  0.30188114    -0.88900
Mn92       Mn  0.06017916  0.01774911  0.33573459     1.47900
O93         O  0.48246233  0.00726976  0.27301286    -0.77400
C94         C  0.43498875  0.42096307  0.27935118     1.16300
O95         O  0.01768400  0.47769759  0.39867096    -0.76100
O96         O  0.01979238  0.48081407  0.27231562    -0.75700
Mn97       Mn  0.41289190  0.43092607  0.33426756     1.51100
O98         O  0.41363925  0.99214513  0.37222099    -0.88100
O99         O  0.04837490  0.48334444  0.30774831    -0.95600
O100        O  0.39315012  0.44349980  0.30035176    -0.90600
C101        C  0.04385022  0.48247709  0.28078683     1.14100
C102        C  0.46653167  0.08469197  0.42958635    -0.27300
C103        C  0.49012985  0.09830379  0.45057431     0.06300
C104        C  0.01006636  0.08690293  0.45352928     0.25900
C105        C  0.00599103  0.06269274  0.43576849    -0.11800
C106        C  0.48326720  0.05055405  0.41374860    -0.25700
C107        C  0.46387133  0.06204243  0.41061887     0.36700
C108        C  0.49432699  0.12491274  0.46807151     0.06300
F109        F  0.03395811  0.09963107  0.47248234    -0.19500
H110        H  0.02160351  0.05455314  0.43798163     0.16100
F111        F  0.44258393  0.05176441  0.38879256    -0.23200
H112        H  0.45023505  0.09192012  0.42729389     0.17900
C113        C  0.48827362  0.14618657  0.45488465     0.25900
C114        C  0.48982153  0.16959806  0.47188565    -0.11800
C115        C  0.49997753  0.17405127  0.00204170    -0.25800
C116        C  0.50862619  0.15436665  0.01447247     0.36800
C117        C  0.50387295  0.12916804  0.49820759    -0.27400
F118        F  0.48147301  0.14498155  0.42525314    -0.19600
H119        H  0.48329654  0.18424233  0.46112696     0.16100
F120        F  0.52102021  0.15913183  0.04229243    -0.23300
H121        H  0.51062747  0.11433018  0.00895120     0.18000
C122        C  0.03105451  0.31125871  0.46118225    -0.27300
C123        C  0.50851481  0.31848180  0.46566048     0.06300
C124        C  0.48866870  0.30553216  0.49007794     0.25900
C125        C  0.49069048  0.28485742  0.50878341    -0.11800
C126        C  0.51243388  0.27661061  0.50355038    -0.25700
C127        C  0.03316780  0.29067543  0.47997158     0.36700
C128        C  0.50505231  0.33861168  0.44416734     0.06300
F129        F  0.46705333  0.31257048  0.49568823    -0.19500
H130        H  0.47522700  0.27509879  0.02684237     0.16100
F131        F  0.05505452  0.28393111  0.47474792    -0.23200
H132        H  0.04645588  0.32064109  0.44243637     0.17900
C133        C  0.03015884  0.36539250  0.43388814     0.25900
C134        C  0.02659282  0.38331545  0.41269535    -0.11800
C135        C  0.49795241  0.37539551  0.40160782    -0.25800
C136        C  0.47276574  0.34894595  0.41224225     0.36800
C137        C  0.47642357  0.33070211  0.43301412    -0.27400
F138        F  0.05817716  0.37432263  0.44445387    -0.19600
H139        H  0.04650297  0.40339144  0.40493432     0.16100
F140        F  0.44463763  0.34019092  0.40215159    -0.23300
H141        H  0.45678114  0.30996066  0.43995298     0.18000
C142        C  0.97707827  0.09557480  0.24951915    -0.27300
C143        C  0.48303677  0.09483541  0.21919864     0.06300
C144        C  0.48723320  0.07144485  0.20890768     0.25900
C145        C  0.48528679  0.04953283  0.22898488    -0.11800
C146        C  0.47928627  0.05063033  0.25967235    -0.25700
C147        C  0.97478490  0.07367212  0.26948771     0.36700
C148        C  0.48559584  0.11886997  0.19880330     0.06300
F149        F  0.49287332  0.06958470  0.17944535    -0.19500
H150        H  0.48894267  0.03196222  0.22057920     0.16100
F151        F  0.96804604  0.07542812  0.29862404    -0.23200
H152        H  0.97392590  0.11341871  0.25807698     0.17900
C153        C  0.46337194  0.12708873  0.19908372     0.25900
C154        C  0.46723894  0.15175304  0.18253093    -0.11800
C155        C  0.49310786  0.16860187  0.16506478    -0.25800
C156        C  0.51495619  0.15992577  0.16381508     0.36800
C157        C  0.51121805  0.13526720  0.18066274    -0.27400
F158        F  0.43786957  0.11128770  0.21549262    -0.19600
H159        H  0.44997689  0.15785002  0.18342660     0.16100
F160        F  0.54043849  0.17605723  0.14745576    -0.23300
H161        H  0.52882239  0.12963528  0.18038308     0.18000
C162        C  0.47985322  0.30125437  0.18113896    -0.27300
C163        C  0.49998145  0.31283307  0.20547573     0.06300
C164        C  0.01865843  0.30117951  0.21129332     0.25900
C165        C  0.01787336  0.27881158  0.19302275    -0.11800
C166        C  0.49795609  0.26722118  0.16865942    -0.25700
C167        C  0.47878448  0.27867673  0.16286626     0.36700
C168        C  0.49908338  0.33495776  0.22610890     0.06300
F169        F  0.03724829  0.31068547  0.23549291    -0.19500
H170        H  0.03287388  0.27041659  0.19811529     0.16100
F171        F  0.45815548  0.26721763  0.14042066    -0.23200
H172        H  0.46460521  0.30945865  0.17653975     0.17900
C173        C  0.52539631  0.36143632  0.23470523     0.25900
C174        C  0.52391613  0.38113843  0.25530671    -0.11800
C175        C  0.49621904  0.37485601  0.26777662    -0.25800
C176        C  0.46984063  0.34855659  0.25855331     0.36800
C177        C  0.47140520  0.32902604  0.23798177    -0.27400
F178        F  0.05206897  0.36808964  0.22280124    -0.19600
H179        H  0.04435314  0.40098095  0.26151442     0.16100
F180        F  0.44243796  0.34109475  0.26982436    -0.23300
H181        H  0.45088285  0.30870468  0.23185029     0.18000
C182        C  0.33210652  0.43101982  0.43839739    -0.27300
C183        C  0.32670916  0.45456500  0.44432645     0.06300
C184        C  0.35262486  0.98469315  0.44015843     0.25900
C185        C  0.37411555  0.98776918  0.41892497    -0.11800
C186        C  0.37123898  0.46194972  0.40211008    -0.25700
C187        C  0.35400163  0.43453515  0.41755383     0.36700
C188        C  0.30276208  0.45028069  0.46588539     0.06300
F189        F  0.35322585  0.00973281  0.45039552    -0.19500
H190        H  0.39069982  0.01008839  0.41161116     0.16100
F191        F  0.35814687  0.41097245  0.41258754    -0.23200
H192        H  0.31931087  0.40977866  0.44999411     0.17900
C193        C  0.27317436  0.42589526  0.46312438     0.25900
C194        C  0.25037641  0.42346958  0.48217758    -0.11800
C195        C  0.25671877  0.44501456  0.50457420    -0.25800
C196        C  0.28677096  0.46872614  0.00828656     0.36800
C197        C  0.30921536  0.47126889  0.48887553    -0.27400
F198        F  0.26597106  0.40525840  0.44104760    -0.19600
H199        H  0.22756016  0.40518905  0.47893942     0.16100
F200        F  0.29370799  0.49066272  0.02885375    -0.23300
H201        H  0.33204031  0.48987562  0.99177130     0.18000
C202        C  0.07273010  0.45390698  0.45410704    -0.27300
C203        C  0.10400654  0.47315804  0.45081651     0.06300
C204        C  0.11626506  0.00114542  0.42903877     0.25900
C205        C  0.09547786  0.00209368  0.40953914    -0.11800
C206        C  0.06291838  0.47894867  0.41309466    -0.25700
C207        C  0.05234779  0.45726893  0.43598862     0.36700
C208        C  0.12576744  0.46834146  0.46882672     0.06300
F209        F  0.14554615  0.02297222  0.42654418    -0.19500
H210        H  0.10347104  0.01895129  0.39204846     0.16100
F211        F  0.02241355  0.43802851  0.43950543    -0.23200
H212        H  0.06392166  0.43554140  0.46999612     0.17900
C213        C  0.12054655  0.45957768  0.49924659     0.25900
C214        C  0.14156243  0.45508047  0.01524869    -0.11800
C215        C  0.16870584  0.46033424  0.00208593    -0.25800
C216        C  0.17339232  0.46887419  0.47166816     0.36800
C217        C  0.15216824  0.47226638  0.45529625    -0.27400
F218        F  0.09640377  0.45672514  0.01376856    -0.19600
H219        H  0.13604618  0.44715222  0.03816817     0.16100
F220        F  0.20596027  0.98916481  0.46205048    -0.23300
H221        H  0.16235295  0.98838651  0.43422414     0.18000
C222        C  0.33060856  0.44096775  0.23584275    -0.27300
C223        C  0.33669724  0.46804321  0.22226588     0.06300
C224        C  0.36375566  0.49439108  0.22920695     0.25900
C225        C  0.38337612  0.49391566  0.25061420    -0.11800
C226        C  0.37657319  0.46714940  0.26548501    -0.25700
C227        C  0.35037162  0.44038104  0.25709331     0.36700
C228        C  0.31394068  0.46903094  0.20250804     0.06300
F229        F  0.37405877  0.01793166  0.21200972    -0.19500
H230        H  0.40555976  0.01237292  0.25410820     0.16100
F231        F  0.34302809  0.41384547  0.27031307    -0.23200
H232        H  0.30989998  0.42037859  0.23085786     0.17900
C233        C  0.30049989  0.44865333  0.17869172     0.25900
C234        C  0.27798434  0.44898794  0.16133126    -0.11800
C235        C  0.26825330  0.46945403  0.16748115    -0.25800
C236        C  0.28213392  0.49020596  0.19099032     0.36800
C237        C  0.30467962  0.48990274  0.20827041    -0.27400
F238        F  0.30918946  0.42847990  0.17215439    -0.19600
H239        H  0.26757014  0.43267250  0.14349032     0.16100
F240        F  0.27406861  0.51091628  0.19719683    -0.23300
H241        H  0.31452815  0.50566249  0.22664897     0.18000
C242        C  0.11333615  0.48385889  0.25007823    -0.27300
C243        C  0.10507092  0.47460990  0.22025998     0.06300
C244        C  0.07645186  0.46802004  0.21022166     0.25900
C245        C  0.05683930  0.47135895  0.22963764    -0.11800
C246        C  0.06523095  0.48080785  0.25951381    -0.25700
C247        C  0.09373412  0.48676812  0.26955782     0.36700
C248        C  0.12681268  0.47231023  0.20008852     0.06300
F249        F  0.06835161  0.95881117  0.18283436    -0.19500
H250        H  0.03449183  0.96544080  0.22175933     0.16100
F251        F  0.10281793  0.49538786  0.29830228    -0.23200
H252        H  0.13506698  0.48859090  0.25843527     0.17900
C253        C  0.15628108  0.49673024  0.19706135     0.25900
C254        C  0.17763003  0.49387479  0.18031262    -0.11800
C255        C  0.17001450  0.46679791  0.16594837    -0.25800
C256        C  0.14037212  0.44257512  0.16813684     0.36800
C257        C  0.11895786  0.44532982  0.18518031    -0.27400
F258        F  0.16441197  0.52342094  0.21031433    -0.19600
H259        H  0.20028876  0.51285800  0.17859957     0.16100
F260        F  0.13252426  0.41597974  0.15484515    -0.23300
H261        H  0.09649776  0.42614793  0.18747795     0.18000
C262        C  0.34634226  0.32148724  0.49387916    -0.27300
C263        C  0.34159117  0.33586283  0.46954314     0.06300
C264        C  0.31227625  0.32933942  0.46272406     0.25900
C265        C  0.28802043  0.30830439  0.47969858    -0.11800
C266        C  0.29216986  0.29318151  0.00366612    -0.25700
C267        C  0.32176421  0.30054812  0.01098430     0.36700
C268        C  0.36680829  0.35629277  0.45003300     0.06300
F269        F  0.30715301  0.34337150  0.43960194    -0.19500
H270        H  0.26562757  0.30376334  0.47409689     0.16100
F271        F  0.32715620  0.28618864  0.03355379    -0.23200
H272        H  0.36861057  0.32689286  0.99950019     0.17900
C273        C  0.39138446  0.38271911  0.46127164     0.25900
C274        C  0.41376389  0.40286879  0.44167242    -0.11800
C275        C  0.41192467  0.39675622  0.41071338    -0.25800
C276        C  0.38782848  0.36951393  0.39988379     0.36800
C277        C  0.36555002  0.34965387  0.41941101    -0.27400
F278        F  0.39302078  0.38960028  0.49088969    -0.19600
H279        H  0.43205311  0.42358456  0.45058452     0.16100
F280        F  0.38524998  0.36223133  0.37029264    -0.23300
H281        H  0.34691972  0.32913692  0.41052598     0.18000
C282        C  0.13172802  0.11472146  0.43478554    -0.27300
C283        C  0.12459860  0.13619794  0.44464092     0.06300
C284        C  0.09903050  0.13567721  0.43280754     0.25900
C285        C  0.08093445  0.11390338  0.41173930    -0.11800
C286        C  0.08801567  0.09230425  0.40174249    -0.25700
C287        C  0.11385051  0.09312608  0.41350664     0.36700
C288        C  0.14485490  0.15979919  0.46609424     0.06300
F289        F  0.09138538  0.15606929  0.44175507    -0.19500
H290        H  0.06142622  0.11419447  0.40307310     0.16100
F291        F  0.12250781  0.07371262  0.40397978    -0.23200
H292        H  0.15174872  0.11516336  0.44302134     0.17900
C293        C  0.15461803  0.15232145  0.49254214     0.25900
C294        C  0.17613138  0.17485207  0.51100596    -0.11800
C295        C  0.18844384  0.20520282  0.50336238    -0.25800
C296        C  0.17769468  0.21270081  0.47761202     0.36800
C297        C  0.15611954  0.19017342  0.45921098    -0.27400
F298        F  0.14371371  0.12320088  0.50026214    -0.19600
H299        H  0.18413193  0.16854320  0.53063661     0.16100
F300        F  0.18847824  0.24181749  0.46992476    -0.23300
H301        H  0.14905945  0.19649346  0.43891589     0.18000
C302        C  0.30956826  0.33609471  0.20740773    -0.27300
C303        C  0.33894224  0.34446978  0.19861074     0.06300
C304        C  0.34343475  0.33210136  0.17247217     0.25900
C305        C  0.31873898  0.31069564  0.15603205    -0.11800
C306        C  0.28920149  0.30127901  0.16545030    -0.25700
C307        C  0.28483214  0.31480072  0.19088014     0.36700
C308        C  0.36457394  0.36399840  0.21821745     0.06300
F309        F  0.37164111  0.33959611  0.16377586    -0.19500
H310        H  0.32266970  0.30051651  0.13661233     0.16100
F311        F  0.25668527  0.30727805  0.19981560    -0.23200
H312        H  0.30583872  0.34566345  0.22744411     0.17900
C313        C  0.38506704  0.39384965  0.21034423     0.25900
C314        C  0.40883060  0.41205285  0.22972411    -0.11800
C315        C  0.41241281  0.40068905  0.25718562    -0.25800
C316        C  0.39225423  0.37043987  0.26448424     0.36800
C317        C  0.36854009  0.35239460  0.24517312    -0.27400
F318        F  0.38152164  0.40557903  0.18441348    -0.19600
H319        H  0.42377554  0.43531639  0.22375571     0.16100
F320        F  0.39530722  0.35831145  0.29039044    -0.23300
H321        H  0.35309714  0.32927575  0.25129900     0.18000
C322        C  0.12763418  0.10523575  0.23074042    -0.27300
C323        C  0.12658491  0.13126233  0.22422403     0.06300
C324        C  0.10402902  0.13514105  0.23758605     0.25900
C325        C  0.08395341  0.11402915  0.25827280    -0.11800
C326        C  0.08604166  0.08871468  0.26612129    -0.25700
C327        C  0.10764606  0.08414099  0.25133536     0.36700
C328        C  0.15010603  0.15487922  0.20483371     0.06300
F329        F  0.10245790  0.16014624  0.23193512    -0.19500
H330        H  0.06753035  0.11815982  0.26902424     0.16100
F331        F  0.10994252  0.05956061  0.25704612    -0.23200
H332        H  0.14442309  0.10150404  0.22020468     0.17900
C333        C  0.18075870  0.16682476  0.21163931     0.25900
C334        C  0.20294178  0.18952185  0.19382027    -0.11800
C335        C  0.19508810  0.20077683  0.16881944    -0.25800
C336        C  0.16440634  0.18862416  0.16183704     0.36800
C337        C  0.14218183  0.16594318  0.17975330    -0.27400
F338        F  0.18924288  0.15721986  0.23614704    -0.19600
H339        H  0.22635974  0.19846066  0.19968089     0.16100
F340        F  0.15586361  0.19946171  0.13838471    -0.23300
H341        H  0.11872280  0.15704915  0.17410291     0.18000
C342        C  0.21898168  0.22673595  0.65110536     0.04000
C343        C  0.21892400  0.22581613  0.61950238    -0.12100
C344        C  0.24012432  0.25063138  0.60240321     0.01500
C345        C  0.26187936  0.27622147  0.61813776    -0.10700
C346        C  0.26346892  0.27663569  0.64955889     0.04000
C347        C  0.24169552  0.25205228  0.66590451    -0.10100
H348        H  0.20257277  0.20529301  0.60864787     0.09600
H349        H  0.27788901  0.29633288  0.60645435     0.07100
H350        H  0.24261338  0.25253995  0.69023155     0.07000
C351        C  0.21444982  0.22854058  0.52055221     0.04000
C352        C  0.21418785  0.22924345  0.55214133    -0.12100
C353        C  0.24002766  0.24983012  0.56852387     0.01500
C354        C  0.26600006  0.26988234  0.55207519    -0.10700
C355        C  0.26602839  0.27026014  0.52060024     0.04000
C356        C  0.24035559  0.24924918  0.50508066    -0.10100
H357        H  0.19350489  0.21387747  0.56349411     0.09600
H358        H  0.28649210  0.28563606  0.56334773     0.07100
H359        H  0.24072920  0.24819848  0.98081012     0.07000
C360        C  0.24278514  0.46827864  0.64993852     0.04000
C361        C  0.24137217  0.46509801  0.61851057    -0.12100
C362        C  0.21571690  0.46018013  0.60206932     0.01500
C363        C  0.19154663  0.45909256  0.61836620    -0.10700
C364        C  0.19359411  0.46430658  0.64946583     0.04000
C365        C  0.21903411  0.46847634  0.66509583    -0.10100
H366        H  0.26081255  0.46696457  0.60730949     0.09600
H367        H  0.17102619  0.45457416  0.60724885     0.07100
H368        H  0.21990907  0.47116911  0.68928355     0.07000
C369        C  0.23203307  0.44536695  0.52152186     0.04000
C370        C  0.23357273  0.44891715  0.55284321    -0.12100
C371        C  0.21407785  0.45614763  0.56831930     0.01500
C372        C  0.19352099  0.46045797  0.55095948    -0.10700
C373        C  0.19012245  0.45477170  0.51977789     0.04000
C374        C  0.20888598  0.44599298  0.50567683    -0.07500
H375        H  0.25034538  0.44611795  0.56455273     0.09600
H376        H  0.18070616  0.46926941  0.56138760     0.07100
H377        H  0.20746517  0.44211510  0.98198065     0.07000
C378        C  0.49729597  0.24248232  0.65060538     0.04000
C379        C  0.49654474  0.21810146  0.66518888    -0.12100
C380        C  0.49775235  0.19562590  0.64889576     0.01500
C381        C  0.50058136  0.19800991  0.61753657    -0.10700
C382        C  0.49983560  0.22152017  0.60174923     0.04000
C383        C  0.49792441  0.24357116  0.61901428    -0.10100
H384        H  0.49485788  0.21648307  0.68947542     0.09600
H385        H  0.50293372  0.18096439  0.60593338     0.07100
H386        H  0.49737651  0.26205716  0.60847052     0.07000
C387        C  0.51085496  0.25108288  0.52048964     0.04000
C388        C  0.50823477  0.24957153  0.55192408    -0.12100
C389        C  0.50168373  0.22316227  0.56775805     0.01500
C390        C  0.49687173  0.19807697  0.55055858    -0.10700
C391        C  0.50221035  0.20011062  0.51938749     0.04000
C392        C  0.50928444  0.22694213  0.50469987    -0.10100
H393        H  0.51151239  0.26935628  0.56337828     0.09600
H394        H  0.48817411  0.17643163  0.56105210     0.07100
H395        H  0.51274457  0.22868420  0.98067056     0.07000
O396        O  0.01925237  0.41574675  0.86727025    -0.87300
C397        C  0.06782421  0.06806995  0.79084739     1.12800
O398        O  0.48925088  0.44706865  0.83496098    -1.35100
O399        O  0.07584453  0.05027574  0.86936552    -0.88800
O400        O  0.46914408  0.38752495  0.86870625    -0.89400
O401        O  0.45581765  0.44313482  0.89812460    -0.78300
O402        O  0.04803293  0.48193154  0.86426691    -1.00300
C403        C  0.48287991  0.02881452  0.89170638     1.22800
O404        O  0.45326370  0.47328198  0.83542837    -1.35200
Mn405      Mn  0.48650005  0.47734103  0.80290425     1.82100
O406        O  0.48493430  0.00656414  0.89940781    -0.77300
O407        O  0.04751923  0.07169077  0.86737907    -0.86700
C408        C  0.47977919  0.02848494  0.78140377     1.13900
C409        C  0.06938567  0.06982670  0.87813030     1.08600
O410        O  0.45703198  0.44554297  0.77178694    -0.78300
O411        O  0.01597581  0.00996409  0.83577804    -1.32000
O412        O  0.43065298  0.41518105  0.80616054    -0.97500
C413        C  0.39298842  0.46519055  0.87838462     1.07300
Mn414      Mn  0.01384451  0.05018013  0.83521865     1.48600
O415        O  0.39131031  0.44167411  0.86753725    -0.86700
Mn416      Mn  0.45166356  0.40292558  0.83480656     1.49600
O417        O  0.01928708  0.41687857  0.80056323    -0.90600
C418        C  0.04212423  0.47992211  0.89100194     1.20500
C419        C  0.49483865  0.39454813  0.79115561     1.12600
Mn420      Mn  0.48581028  0.47587909  0.86798979     1.81000
O421        O  0.47915739  0.03230142  0.80839130    -0.95700
Mn422      Mn  0.03166185  0.44895293  0.83491086     1.49300
C423        C  0.49522464  0.39398113  0.87777032     1.09100
Mn424      Mn  0.44652371  0.01072825  0.83771971     1.49900
C425        C  0.39591092  0.46802194  0.79050775     1.12000
O426        O  0.43001798  0.41464395  0.86259700    -1.01500
O427        O  0.04553724  0.07002675  0.80034031    -0.91200
C428        C  0.43367442  0.41900854  0.88953269     1.23300
O429        O  0.48092573  0.03286735  0.86499433    -1.01900
O430        O  0.07512107  0.05000221  0.80215570    -0.89300
O431        O  0.41319662  0.99317439  0.80479186    -0.88900
O432        O  0.46932320  0.38774418  0.80185073    -0.88900
Mn433      Mn  0.06033477  0.01721440  0.83576807     1.47900
O434        O  0.48274495  0.00695044  0.77303633    -0.77400
C435        C  0.43481900  0.42093692  0.77940289     1.16300
O436        O  0.01762604  0.47749179  0.89874449    -0.76100
O437        O  0.01950081  0.48059707  0.77233970    -0.75700
Mn438      Mn  0.41271532  0.43081448  0.83422393     1.51100
O439        O  0.41406110  0.99214338  0.87244227    -0.88100
O440        O  0.04814854  0.48317303  0.80771195    -0.95600
O441        O  0.39304383  0.44351325  0.80019513    -0.90600
C442        C  0.04358935  0.48229777  0.78075078     1.14100
C443        C  0.46717620  0.08460791  0.92986054    -0.27300
C444        C  0.49107365  0.09856104  0.95049420     0.06300
C445        C  0.01042170  0.08690945  0.95329665     0.25900
C446        C  0.00642506  0.06273420  0.93550933    -0.11800
C447        C  0.48409217  0.05071404  0.91370895    -0.25700
C448        C  0.46447700  0.06195698  0.91087865     0.36700
C449        C  0.49518285  0.12515067  0.96801997     0.06300
F450        F  0.03430432  0.09966611  0.97225823    -0.19500
H451        H  0.02206426  0.05462893  0.93773749     0.16100
F452        F  0.44290523  0.05141490  0.88933694    -0.23200
H453        H  0.45062307  0.09152975  0.92786690     0.17900
C454        C  0.48829921  0.14595669  0.95508756     0.25900
C455        C  0.48964260  0.16922852  0.97217038    -0.11800
C456        C  0.49958961  0.17407242  0.50195821    -0.25800
C457        C  0.50743433  0.15386424  0.51464532     0.36800
C458        C  0.50534964  0.12979826  0.99797196    -0.27400
F459        F  0.48086908  0.14445106  0.92560998    -0.19600
H460        H  0.48254460  0.18352693  0.96165115     0.16100
F461        F  0.51935834  0.15822232  0.54265401    -0.23300
H462        H  0.50850835  0.11331710  0.50935479     0.18000
C463        C  0.03177027  0.31111821  0.96107955    -0.27300
C464        C  0.50940638  0.31874997  0.96554320     0.06300
C465        C  0.48971802  0.30618983  0.99012886     0.25900
C466        C  0.49145020  0.28535847  0.00884517    -0.11800
C467        C  0.51277509  0.27658252  0.00347657    -0.25700
C468        C  0.03355269  0.29031751  0.97985053     0.36700
C469        C  0.50585511  0.33867287  0.94383948     0.06300
F470        F  0.46847557  0.31372008  0.99583619    -0.19500
H471        H  0.47440570  0.27432191  0.52668501     0.16100
F472        F  0.05509221  0.28310541  0.97453649    -0.23200
H473        H  0.04714108  0.32034602  0.94229051     0.17900
C474        C  0.03087132  0.36553064  0.93373573     0.25900
C475        C  0.02708303  0.38336978  0.91258875    -0.11800
C476        C  0.49832182  0.37517957  0.90123115    -0.25800
C477        C  0.47330120  0.34860792  0.91186804     0.36800
C478        C  0.47716557  0.33053967  0.93269986    -0.27400
F479        F  0.05890442  0.37471727  0.94442935    -0.19600
H480        H  0.04686145  0.40364719  0.90497116     0.16100
F481        F  0.44512990  0.33957387  0.90173299    -0.23300
H482        H  0.45762329  0.30976365  0.93974761     0.18000
C483        C  0.97708449  0.09535226  0.74985817    -0.27300
C484        C  0.48397375  0.09507492  0.71952129     0.06300
C485        C  0.48888416  0.07208875  0.70930372     0.25900
C486        C  0.48670646  0.04998530  0.72925187    -0.11800
C487        C  0.47966643  0.05038569  0.75973419    -0.25700
C488        C  0.97485106  0.07335943  0.76967016     0.36700
C489        C  0.48655807  0.11923452  0.69917276     0.06300
F490        F  0.49543883  0.07075759  0.68001950    -0.19500
H491        H  0.49099382  0.03280637  0.72091294     0.16100
F492        F  0.96828338  0.07504631  0.79888503    -0.23200
H493        H  0.97411800  0.11323893  0.75862809     0.17900
C494        C  0.46477215  0.12805498  0.70005337     0.25900
C495        C  0.46860264  0.15259139  0.68331253    -0.11800
C496        C  0.49391659  0.16872083  0.66494105    -0.25800
C497        C  0.51523174  0.15938600  0.66297991     0.36800
C498        C  0.51162596  0.13493623  0.68013476    -0.27400
F499        F  0.43964218  0.11292766  0.71712832    -0.19600
H500        H  0.45168574  0.15913080  0.68474594     0.16100
F501        F  0.54011464  0.17466748  0.64559793    -0.23300
H502        H  0.52894544  0.12892817  0.67930578     0.18000
C503        C  0.47987010  0.30085083  0.68131874    -0.27300
C504        C  0.49967799  0.31223087  0.70591270     0.06300
C505        C  0.01901748  0.30072756  0.71183127     0.25900
C506        C  0.01836331  0.27862358  0.69325270    -0.11800
C507        C  0.49830176  0.26707949  0.66886096    -0.25700
C508        C  0.47911915  0.27849948  0.66293052     0.36700
C509        C  0.49875313  0.33444410  0.72638771     0.06300
F510        F  0.03759403  0.31002670  0.73604141    -0.19500
H511        H  0.03342306  0.27025229  0.69813488     0.16100
F512        F  0.45881093  0.26725899  0.64019110    -0.23200
H513        H  0.46468529  0.30909302  0.67654574     0.17900
C514        C  0.52512183  0.36078669  0.73513116     0.25900
C515        C  0.52367704  0.38063385  0.75554929    -0.11800
C516        C  0.49594661  0.37467844  0.76763875    -0.25800
C517        C  0.46949173  0.34859291  0.75815211     0.36800
C518        C  0.47103164  0.32886031  0.73781993    -0.27400
F519        F  0.05233315  0.36717629  0.72437216    -0.19600
H520        H  0.04441514  0.40019132  0.76268215     0.16100
F521        F  0.44202615  0.34157754  0.76888690    -0.23300
H522        H  0.45044978  0.30868982  0.73149863     0.18000
C523        C  0.33228319  0.43076246  0.93879858    -0.27300
C524        C  0.32665845  0.45417477  0.94461289     0.06300
C525        C  0.35280041  0.98511626  0.93990038     0.25900
C526        C  0.37438877  0.98801162  0.91886996    -0.11800
C527        C  0.37101268  0.46165350  0.90213421    -0.25700
C528        C  0.35407586  0.43431685  0.91779816     0.36700
C529        C  0.30284680  0.44990832  0.96633435     0.06300
F530        F  0.35360634  0.01026425  0.95010517    -0.19500
H531        H  0.39118994  0.01028793  0.91167752     0.16100
F532        F  0.35841001  0.41086723  0.91288293    -0.23200
H533        H  0.31973890  0.40960097  0.95058832     0.17900
C534        C  0.27325402  0.42549084  0.96377300     0.25900
C535        C  0.25050002  0.42330376  0.98274612    -0.11800
C536        C  0.25693635  0.44508008  0.00490546    -0.25800
C537        C  0.28652521  0.46871562  0.50804617     0.36800
C538        C  0.30939736  0.47107750  0.98915760    -0.27400
F539        F  0.26599720  0.40462250  0.94192933    -0.19600
H540        H  0.22765201  0.40504740  0.97961794     0.16100
F541        F  0.29339020  0.49049736  0.52877898    -0.23300
H542        H  0.33184474  0.49004857  0.49164015     0.18000
C543        C  0.07315590  0.45391422  0.95391513    -0.27300
C544        C  0.10440107  0.47347869  0.95071405     0.06300
C545        C  0.11600510  0.00148066  0.92966958     0.25900
C546        C  0.09522855  0.00218315  0.90999458    -0.11800
C547        C  0.06297868  0.47882572  0.91302436    -0.25700
C548        C  0.05260574  0.45707341  0.93584363     0.36700
C549        C  0.12637099  0.46903214  0.96883445     0.06300
F550        F  0.14512582  0.02381699  0.92770417    -0.19500
H551        H  0.10313297  0.01922221  0.89270439     0.16100
F552        F  0.02272021  0.43760092  0.93934987    -0.23200
H553        H  0.06450150  0.43549777  0.96973493     0.17900
C554        C  0.12103858  0.46003886  0.99919552     0.25900
C555        C  0.14095132  0.45438782  0.51522469    -0.11800
C556        C  0.16789104  0.45921321  0.50191469    -0.25800
C557        C  0.17440364  0.47037051  0.97197437     0.36800
C558        C  0.15309211  0.47355386  0.95549908    -0.27400
F559        F  0.09617306  0.45676085  0.51394687    -0.19600
H560        H  0.13553184  0.44668791  0.53821843     0.16100
F561        F  0.20652509  0.99111854  0.96312664    -0.23300
H562        H  0.16287854  0.99000221  0.93500064     0.18000
C563        C  0.33080109  0.44148615  0.73537562    -0.27300
C564        C  0.33701313  0.46864786  0.72188323     0.06300
C565        C  0.36409597  0.49490729  0.72900301     0.25900
C566        C  0.38356779  0.49425282  0.75050427    -0.11800
C567        C  0.37662943  0.46738807  0.76527835    -0.25700
C568        C  0.35043822  0.44071757  0.75668220     0.36700
C569        C  0.31435973  0.46976407  0.70200197     0.06300
F570        F  0.37440417  0.01741362  0.71175059    -0.19500
H571        H  0.40593354  0.01190003  0.75386169     0.16100
F572        F  0.34298846  0.41408956  0.76974354    -0.23200
H573        H  0.31008769  0.42094812  0.73027042     0.17900
C574        C  0.30073921  0.44923057  0.67832856     0.25900
C575        C  0.27813215  0.44947524  0.66104081    -0.11800
C576        C  0.26848058  0.47002295  0.66708060    -0.25800
C577        C  0.28260501  0.49101053  0.69035149     0.36800
C578        C  0.30524922  0.49079582  0.70757813    -0.27400
F579        F  0.30931135  0.42895129  0.67187671    -0.19600
H580        H  0.26756956  0.43300819  0.64335156     0.16100
F581        F  0.27465452  0.51183744  0.69638894    -0.23300
H582        H  0.31523673  0.50670642  0.72581521     0.18000
C583        C  0.11280565  0.48314227  0.74992710    -0.27300
C584        C  0.10482749  0.47476542  0.71987771     0.06300
C585        C  0.07649976  0.46895718  0.70970636     0.25900
C586        C  0.05688154  0.47215523  0.72925995    -0.11800
C587        C  0.06497509  0.48070026  0.75939211    -0.25700
C588        C  0.09319977  0.48591366  0.76952830     0.36700
C589        C  0.12657858  0.47252831  0.69964828     0.06300
F590        F  0.06831870  0.95737146  0.68328616    -0.19500
H591        H  0.03438968  0.96399891  0.72211154     0.16100
F592        F  0.10199919  0.49362662  0.79849134    -0.23200
H593        H  0.13431323  0.48728483  0.75836651     0.17900
C594        C  0.15618757  0.49677918  0.69705912     0.25900
C595        C  0.17758805  0.49388340  0.68043652    -0.11800
C596        C  0.16990299  0.46693485  0.66574408    -0.25800
C597        C  0.14009449  0.44290714  0.66744838     0.36800
C598        C  0.11862792  0.44570235  0.68437800    -0.27400
F599        F  0.16441053  0.52334336  0.71064385    -0.19600
H600        H  0.20034232  0.51275084  0.67906252     0.16100
F601        F  0.13210617  0.41643297  0.65380572    -0.23300
H602        H  0.09604496  0.42664924  0.68632417     0.18000
C603        C  0.34605368  0.32196342  0.99407910    -0.27300
C604        C  0.34116480  0.33601587  0.96954742     0.06300
C605        C  0.31177389  0.32907524  0.96249872     0.25900
C606        C  0.28756973  0.30797511  0.97950974    -0.11800
C607        C  0.29247769  0.29321132  0.50364358    -0.25700
C608        C  0.32198530  0.30018139  0.51079755     0.36700
C609        C  0.36637808  0.35649595  0.95007831     0.06300
F610        F  0.30653312  0.34273978  0.93910964    -0.19500
H611        H  0.26510946  0.30312706  0.97374973     0.16100
F612        F  0.32720406  0.28556189  0.53323176    -0.23200
H613        H  0.36882234  0.32608990  0.49914421     0.17900
C614        C  0.39025079  0.38355057  0.96109206     0.25900
C615        C  0.41275899  0.40357007  0.94152699    -0.11800
C616        C  0.41173403  0.39672116  0.91081922    -0.25800
C617        C  0.38835416  0.36889460  0.90026421     0.36800
C618        C  0.36591178  0.34915826  0.91975344    -0.27400
F619        F  0.39105050  0.39112071  0.99040692    -0.19600
H620        H  0.43045832  0.42477038  0.95021840     0.16100
F621        F  0.38671573  0.36086393  0.87097677    -0.23300
H622        H  0.34782134  0.32815646  0.91108093     0.18000
C623        C  0.13185621  0.11437539  0.93474148    -0.27300
C624        C  0.12462811  0.13578609  0.94456661     0.06300
C625        C  0.09915707  0.13532115  0.93254313     0.25900
C626        C  0.08117294  0.11357876  0.91140982    -0.11800
C627        C  0.08830768  0.09199459  0.90149502    -0.25700
C628        C  0.11414149  0.09286874  0.91332770     0.36700
C629        C  0.14477034  0.15934743  0.96609137     0.06300
F630        F  0.09150483  0.15574393  0.94135725    -0.19500
H631        H  0.06170386  0.11387780  0.90263801     0.16100
F632        F  0.12300114  0.07365216  0.90368999    -0.23200
H633        H  0.15185384  0.11483352  0.94307830     0.17900
C634        C  0.15433613  0.15183767  0.99265119     0.25900
C635        C  0.17587746  0.17435090  0.01111884    -0.11800
C636        C  0.18836877  0.20470828  0.00337931    -0.25800
C637        C  0.17773227  0.21222321  0.97755219     0.36800
C638        C  0.15617619  0.18972017  0.95913171    -0.27400
F639        F  0.14321537  0.12270424  0.00046551    -0.19600
H640        H  0.18374716  0.16801615  0.03082904     0.16100
F641        F  0.18860071  0.24133827  0.96980631    -0.23300
H642        H  0.14924340  0.19605567  0.93876116     0.18000
C643        C  0.30938891  0.33755339  0.70646824    -0.27300
C644        C  0.33873022  0.34501705  0.69855574     0.06300
C645        C  0.34334255  0.33175480  0.67319794     0.25900
C646        C  0.31874596  0.31040170  0.65662985    -0.11800
C647        C  0.28921387  0.30189672  0.66521238    -0.25700
C648        C  0.28475094  0.31624888  0.68984320     0.36700
C649        C  0.36414879  0.36446415  0.71836625     0.06300
F650        F  0.37152218  0.33834755  0.66544039    -0.19500
H651        H  0.32268826  0.29953840  0.63781920     0.16100
F652        F  0.25659769  0.30947616  0.69791637    -0.23200
H653        H  0.30559256  0.34779588  0.72592194     0.17900
C654        C  0.38497247  0.39417693  0.71038979     0.25900
C655        C  0.40879130  0.41220613  0.72976370    -0.11800
C656        C  0.41207394  0.40080045  0.75732877    -0.25800
C657        C  0.39146534  0.37071608  0.76481640     0.36800
C658        C  0.36771937  0.35283573  0.74548539    -0.27400
F659        F  0.38176109  0.40591573  0.68430641    -0.19600
H660        H  0.42405375  0.43536768  0.72367645     0.16100
F661        F  0.39411637  0.35858732  0.79091048    -0.23300
H662        H  0.35197753  0.32981798  0.75169390     0.18000
C663        C  0.12981034  0.10607917  0.73230810    -0.27300
C664        C  0.12751528  0.13114872  0.72439875     0.06300
C665        C  0.10375501  0.13392340  0.73640649     0.25900
C666        C  0.08366268  0.11271510  0.75702432    -0.11800
C667        C  0.08691427  0.08839775  0.76622663    -0.25700
C668        C  0.10988526  0.08495487  0.75292412     0.36700
C669        C  0.15088029  0.15492627  0.70492489     0.06300
F670        F  0.10091656  0.15798112  0.72949095    -0.19500
H671        H  0.06621632  0.11599990  0.76661510     0.16100
F672        F  0.11364734  0.06152331  0.76015863    -0.23200
H673        H  0.14751054  0.10311325  0.72284360     0.17900
C674        C  0.18161049  0.16752223  0.71185087     0.25900
C675        C  0.20357010  0.19037266  0.69398920    -0.11800
C676        C  0.19545664  0.20122676  0.66885397    -0.25800
C677        C  0.16473033  0.18846121  0.66174693     0.36800
C678        C  0.14272333  0.16555208  0.67964190    -0.27400
F679        F  0.19040426  0.15843844  0.73652262    -0.19600
H680        H  0.22702879  0.19975259  0.69993925     0.16100
F681        F  0.15590071  0.19890618  0.63818681    -0.23300
H682        H  0.11923671  0.15615347  0.67380694     0.18000
C683        C  0.21714513  0.72504350  0.15131753     0.04000
C684        C  0.21677978  0.72542444  0.11973796    -0.12100
C685        C  0.23786201  0.75089615  0.10331151     0.01500
C686        C  0.25934078  0.77606778  0.11975398    -0.10700
C687        C  0.26136092  0.77521322  0.15115442     0.04000
C688        C  0.23997998  0.74969732  0.16676247    -0.10100
H689        H  0.20040062  0.70525168  0.10838879     0.09600
H690        H  0.27496302  0.79667978  0.10852480     0.07100
H691        H  0.24123872  0.74884924  0.19100543     0.07000
C692        C  0.21415634  0.72890952  0.02096388     0.04000
C693        C  0.21305810  0.73004837  0.05250765    -0.12100
C694        C  0.23835586  0.75087322  0.06938837     0.01500
C695        C  0.26458314  0.77127327  0.05342619    -0.10700
C696        C  0.26539814  0.77147715  0.02194366     0.04000
C697        C  0.24033865  0.74996377  0.00595596    -0.10100
H698        H  0.19216688  0.71461416  0.06349006     0.09600
H699        H  0.28477497  0.78724854  0.06504959     0.07100
H700        H  0.24176450  0.74921078  0.48214461     0.07000
C701        C  0.24319930  0.96866859  0.15188331     0.04000
C702        C  0.24132647  0.96512539  0.12056041    -0.12100
C703        C  0.21585667  0.96111309  0.10441686     0.01500
C704        C  0.19204284  0.96037167  0.12104761    -0.10700
C705        C  0.19456135  0.96565205  0.15216732     0.04000
C706        C  0.22015230  0.96974762  0.16739891    -0.10100
H707        H  0.26041068  0.96631740  0.10920611     0.09600
H708        H  0.17159201  0.95632766  0.11010456     0.07100
H709        H  0.22175374  0.97303992  0.19153213     0.07000
C710        C  0.23414647  0.95107909  0.02302530     0.04000
C711        C  0.23366518  0.95121169  0.05457349    -0.12100
C712        C  0.21458132  0.95866209  0.07054551     0.01500
C713        C  0.19533054  0.96528302  0.05365537    -0.10700
C714        C  0.19359561  0.96273861  0.02208360     0.04000
C715        C  0.21281778  0.95499594  0.00723354    -0.07500
H716        H  0.24852075  0.94555987  0.06623409     0.09600
H717        H  0.18220531  0.97338012  0.06478643     0.07100
H718        H  0.21156759  0.95141844  0.48306526     0.07000
C719        C  0.50487377  0.74870367  0.15046483     0.04000
C720        C  0.50188263  0.72396605  0.16647356    -0.12100
C721        C  0.49951591  0.69905641  0.15140369     0.01500
C722        C  0.50027218  0.69911269  0.11979094    -0.10700
C723        C  0.50254015  0.72339443  0.10264192     0.04000
C724        C  0.50526103  0.74825743  0.11889361    -0.10100
H725        H  0.50107473  0.72391992  0.19079980     0.09600
H726        H  0.49877274  0.67955813  0.10910058     0.07100
H727        H  0.50770537  0.76774724  0.10771470     0.07000
C728        C  0.50789681  0.74825915  0.01973753     0.04000
C729        C  0.50750533  0.74838306  0.05127898    -0.12100
C730        C  0.50228290  0.72296250  0.06836246     0.01500
C731        C  0.49644054  0.69697914  0.05205816    -0.10700
C732        C  0.49885265  0.69702840  0.02048448     0.04000
C733        C  0.50468737  0.72302827  0.00473189    -0.10100
H734        H  0.51149886  0.76878565  0.06166745     0.09600
H735        H  0.48902227  0.67593921  0.06359985     0.07100
H736        H  0.50696177  0.72453338  0.47999846     0.07000
O737        O  0.02072127  0.91750189  0.36736008    -0.87300
C738        C  0.06851396  0.56737309  0.29251062     1.12800
O739        O  0.48962805  0.94808426  0.33516703    -1.35100
O740        O  0.07513222  0.54867417  0.37141092    -0.88800
O741        O  0.47057311  0.88809221  0.36750131    -0.89400
O742        O  0.45693485  0.94397047  0.39887108    -0.78300
O743        O  0.04907822  0.98403907  0.36377771    -1.00300
C744        C  0.48084923  0.52721811  0.39171371     1.22800
O745        O  0.45331439  0.97384097  0.33625470    -1.35200
Mn746      Mn  0.48603477  0.97776037  0.30314146     1.82100
O747        O  0.48354775  0.50528282  0.39912002    -0.77300
O748        O  0.04666629  0.56997991  0.36992543    -0.86700
C749        C  0.48112755  0.52920727  0.28152797     1.13900
C750        C  0.06816939  0.56766260  0.38100760     1.08600
O751        O  0.45618137  0.94561137  0.27231688    -0.78300
O752        O  0.01605744  0.50947811  0.33619582    -1.32000
O753        O  0.43049095  0.91589538  0.30722765    -0.97500
C754        C  0.39470008  0.96592074  0.38168496     1.07300
Mn755      Mn  0.01406581  0.54969940  0.33647825     1.48600
O756        O  0.39249786  0.94235303  0.37026728    -0.86700
Mn757      Mn  0.45235341  0.90373227  0.33465801     1.49600
O758        O  0.02003901  0.91912862  0.29999989    -0.90600
C759        C  0.04342986  0.98221460  0.39058393     1.20500
C760        C  0.49570868  0.89744869  0.28910986     1.12600
Mn761      Mn  0.48640722  0.97699202  0.36823337     1.81000
O762        O  0.48016541  0.53205692  0.30857125    -0.95700
Mn763      Mn  0.03236951  0.95068667  0.33470638     1.49300
C764        C  0.49661496  0.89506656  0.37713933     1.09100
Mn765      Mn  0.44641763  0.51042757  0.33627391     1.49900
C766        C  0.39459900  0.96782019  0.29347784     1.12000
O767        O  0.43092640  0.91497715  0.36366888    -1.01500
O768        O  0.04662256  0.56981739  0.30237676    -0.91200
C769        C  0.43487142  0.91952200  0.39061109     1.23300
O770        O  0.47978178  0.53201971  0.36501519    -1.01900
O771        O  0.07567955  0.54918772  0.30366351    -0.89300
O772        O  0.41443431  0.49334715  0.30188873    -0.88900
O773        O  0.46991019  0.88969045  0.29991598    -0.88900
Mn774      Mn  0.06026872  0.51620400  0.33683649     1.47900
O775        O  0.48397396  0.50773694  0.27252910    -0.77400
C776        C  0.43396503  0.92122403  0.28038175     1.16300
O777        O  0.01878204  0.97926901  0.39853884    -0.76100
O778        O  0.01869496  0.98108800  0.27208605    -0.75700
Mn779      Mn  0.41295059  0.93121736  0.33607970     1.51100
O780        O  0.41239069  0.49162216  0.36923018    -0.88100
O781        O  0.04775650  0.98465867  0.30736676    -0.95600
O782        O  0.39224650  0.94348622  0.30293831    -0.90600
C783        C  0.04318203  0.98373584  0.28046796     1.14100
C784        C  0.46169989  0.57986809  0.43167089    -0.27300
C785        C  0.48575480  0.59451123  0.45201126     0.06300
C786        C  0.00660349  0.58444334  0.45422559     0.25900
C787        C  0.00372110  0.56105173  0.43590089    -0.11800
C788        C  0.48085834  0.54817314  0.41420019    -0.25700
C789        C  0.45995973  0.55793389  0.41219267     0.36700
C790        C  0.48927967  0.62082165  0.46958462     0.06300
F791        F  0.03086644  0.59829240  0.47261757    -0.19500
H792        H  0.02045490  0.55427314  0.43735661     0.16100
F793        F  0.43814785  0.54680026  0.39093687    -0.23200
H794        H  0.44444488  0.58590125  0.43015643     0.17900
C795        C  0.48213303  0.64140128  0.45663607     0.25900
C796        C  0.48414844  0.66514688  0.47345315    -0.11800
C797        C  0.49477801  0.66996566  0.00367518    -0.25800
C798        C  0.50334448  0.65013866  0.01604328     0.36800
C799        C  0.49987389  0.62580728  0.49936047    -0.27400
F800        F  0.47405533  0.63934470  0.42730185    -0.19600
H801        H  0.47690587  0.67929054  0.46284854     0.16100
F802        F  0.51670852  0.65525409  0.04338340    -0.23300
H803        H  0.50493445  0.60983212  0.01057514     0.18000
C804        C  0.02908256  0.80841134  0.45879802    -0.27300
C805        C  0.50927002  0.81885994  0.46524480     0.06300
C806        C  0.49127013  0.80812832  0.49119236     0.25900
C807        C  0.49206846  0.78632565  0.50927874    -0.11800
C808        C  0.51079155  0.77473839  0.50192263    -0.25700
C809        C  0.02993249  0.78656517  0.47676408     0.36700
C810        C  0.50618892  0.83946277  0.44401054     0.06300
F811        F  0.47265784  0.81850754  0.49888829    -0.19500
H812        H  0.47687296  0.77735019  0.02905746     0.16100
F813        F  0.04901745  0.77672851  0.46922224    -0.23200
H814        H  0.04300305  0.81620861  0.43885259     0.17900
C815        C  0.03177319  0.86551597  0.43308802     0.25900
C816        C  0.02837772  0.88353493  0.41174778    -0.11800
C817        C  0.49949486  0.87619203  0.40082535    -0.25800
C818        C  0.47410851  0.85049605  0.41252173     0.36800
C819        C  0.47754255  0.83244984  0.43378214    -0.27400
F820        F  0.05985463  0.87335051  0.44260537    -0.19600
H821        H  0.04842114  0.90300568  0.40322412     0.16100
F822        F  0.44591151  0.84230451  0.40311037    -0.23300
H823        H  0.45769320  0.81242458  0.44174899     0.18000
C824        C  0.97985885  0.59828677  0.25381889    -0.27300
C825        C  0.48368196  0.59739252  0.22274939     0.06300
C826        C  0.48518015  0.57289118  0.21073769     0.25900
C827        C  0.48381718  0.55042788  0.22968916    -0.11800
C828        C  0.48051318  0.55167071  0.26091663    -0.25700
C829        C  0.97773298  0.57561121  0.27257337     0.36700
C830        C  0.48679453  0.62255390  0.20342740     0.06300
F831        F  0.48759618  0.57042201  0.18065429    -0.19500
H832        H  0.48557949  0.53218310  0.21992850     0.16100
F833        F  0.97319265  0.57738032  0.30237274    -0.23200
H834        H  0.97889374  0.61683602  0.26391969     0.17900
C835        C  0.46825017  0.63506628  0.20785287     0.25900
C836        C  0.47257249  0.65979222  0.19089892    -0.11800
C837        C  0.49516933  0.67251562  0.16890081    -0.25800
C838        C  0.51349675  0.65990489  0.16415387     0.36800
C839        C  0.50942027  0.63533625  0.18135246    -0.27400
F840        F  0.44559449  0.62318509  0.22829175    -0.19600
H841        H  0.45796583  0.66889625  0.19477360     0.16100
F842        F  0.53610056  0.67204425  0.14368641    -0.23300
H843        H  0.52455990  0.62680824  0.17791388     0.18000
C844        C  0.48830644  0.80944523  0.17524636    -0.27300
C845        C  0.50656334  0.82105985  0.20083302     0.06300
C846        C  0.02557991  0.81000180  0.20878336     0.25900
C847        C  0.02539198  0.78698806  0.19197917    -0.11800
C848        C  0.50651766  0.77467483  0.16684448    -0.25700
C849        C  0.48831614  0.78662682  0.15832516     0.36700
C850        C  0.50374921  0.84279152  0.22049973     0.06300
F851        F  0.04304127  0.82008419  0.23376528    -0.19500
H852        H  0.03974390  0.77834463  0.19890909     0.16100
F853        F  0.46933953  0.77523915  0.13453410    -0.23200
H854        H  0.47349831  0.81767402  0.16870742     0.17900
C855        C  0.52916522  0.86945710  0.23016825     0.25900
C856        C  0.52625850  0.88772184  0.25154397    -0.11800
C857        C  0.49793026  0.87989106  0.26365180    -0.25800
C858        C  0.47225088  0.85431828  0.25213544     0.36800
C859        C  0.47527202  0.83600652  0.23095308    -0.27400
F860        F  0.05701830  0.87793798  0.21914158    -0.19600
H861        H  0.04658834  0.90776391  0.25931604     0.16100
F862        F  0.44420708  0.84633685  0.26186975    -0.23300
H863        H  0.45531196  0.81579758  0.22350172     0.18000
C864        C  0.33001206  0.93078704  0.43814065    -0.27300
C865        C  0.32988819  0.95605275  0.44951108     0.06300
C866        C  0.34408596  0.48206448  0.42925602     0.25900
C867        C  0.36611328  0.48567333  0.40849571    -0.11800
C868        C  0.37355075  0.96243946  0.40648397    -0.25700
C869        C  0.35147614  0.93378927  0.41697525     0.36700
C870        C  0.30525277  0.95235517  0.46988782     0.06300
F871        F  0.33899516  0.50512501  0.43373354    -0.19500
H872        H  0.37857791  0.50686527  0.39678004     0.16100
F873        F  0.34995207  0.90844562  0.40635128    -0.23200
H874        H  0.31311185  0.90852633  0.44539945     0.17900
C875        C  0.27486773  0.93324237  0.46206915     0.25900
C876        C  0.25181157  0.93151673  0.48018605    -0.11800
C877        C  0.25843384  0.94885680  0.50643919    -0.25800
C878        C  0.28885023  0.96755121  0.01464819     0.36800
C879        C  0.31189374  0.96884851  0.49668355    -0.27400
F880        F  0.26742553  0.91738361  0.43606555    -0.19600
H881        H  0.22869081  0.91713068  0.47322880     0.16100
F882        F  0.29654622  0.98500901  0.03958184    -0.23300
H883        H  0.33503208  0.98359960  0.00323516     0.18000
C884        C  0.07571620  0.95762417  0.45358041    -0.27300
C885        C  0.10681674  0.97824553  0.45090144     0.06300
C886        C  0.11426234  0.49610442  0.42897832     0.25900
C887        C  0.09394618  0.49812243  0.40970817    -0.11800
C888        C  0.06466030  0.98174861  0.41256111    -0.25700
C889        C  0.05479279  0.95986342  0.43521646     0.36700
C890        C  0.12923070  0.97507512  0.46979079     0.06300
F891        F  0.14392504  0.51677490  0.42619299    -0.19500
H892        H  0.10248892  0.51480517  0.39202393     0.16100
F893        F  0.02506949  0.93959265  0.43847326    -0.23200
H894        H  0.06746455  0.93916244  0.46930874     0.17900
C895        C  0.12333078  0.96541027  0.49997693     0.25900
C896        C  0.14377957  0.96096728  0.01671744    -0.11800
C897        C  0.17196751  0.96835808  0.00455126    -0.25800
C898        C  0.17850107  0.97923819  0.47454608     0.36800
C899        C  0.15699702  0.98152529  0.45743173    -0.27400
F900        F  0.09703772  0.95939770  0.01373188    -0.19600
H901        H  0.13753962  0.95169906  0.03912535     0.16100
F902        F  0.19973792  0.47635618  0.45784811    -0.23300
H903        H  0.15671032  0.47822954  0.43179205     0.18000
C904        C  0.32739893  0.94164047  0.24161738    -0.27300
C905        C  0.33576440  0.96768919  0.22467972     0.06300
C906        C  0.36453528  0.99287170  0.22896771     0.25900
C907        C  0.38375893  0.99244848  0.25088594    -0.11800
C908        C  0.37493191  0.96679413  0.26866095    -0.25700
C909        C  0.34683979  0.94101166  0.26319389     0.36700
C910        C  0.31371516  0.96901430  0.20411421     0.06300
F911        F  0.37111232  0.52069236  0.21544850    -0.19500
H912        H  0.40372092  0.51474373  0.25593458     0.16100
F913        F  0.33746915  0.91567622  0.27965481    -0.23200
H914        H  0.30529026  0.92203159  0.23892835     0.17900
C915        C  0.29665254  0.94562322  0.18377907     0.25900
C916        C  0.27447594  0.94624150  0.16613915    -0.11800
C917        C  0.26866958  0.96994374  0.16866471    -0.25800
C918        C  0.28613169  0.99366801  0.18844058     0.36800
C919        C  0.30845363  0.99317525  0.20594059    -0.27400
F920        F  0.30132732  0.92211777  0.18103099    -0.19600
H921        H  0.26117602  0.92772426  0.15106648     0.16100
F922        F  0.28151597  0.01723409  0.19090128    -0.23300
H923        H  0.32104984  0.01130328  0.22162751     0.18000
C924        C  0.11446010  0.98891843  0.25068673    -0.27300
C925        C  0.10616862  0.97777627  0.22138943     0.06300
C926        C  0.07709682  0.96946051  0.21111963     0.25900
C927        C  0.05688029  0.97239066  0.22994781    -0.11800
C928        C  0.06522737  0.98335854  0.25936210    -0.25700
C929        C  0.09441532  0.99179480  0.26944320     0.36700
C930        C  0.12818035  0.97497453  0.20210417     0.06300
F931        F  0.06769022  0.45886977  0.18154329    -0.19500
H932        H  0.03490754  0.46609999  0.22143119     0.16100
F933        F  0.10370007  0.00275199  0.29758248    -0.23200
H934        H  0.13650893  0.99505103  0.25930815     0.17900
C935        C  0.15800175  0.99893464  0.19972894     0.25900
C936        C  0.17929055  0.99559400  0.18343997    -0.11800
C937        C  0.17126588  0.96855438  0.16878606    -0.25800
C938        C  0.14139227  0.94474010  0.17054328     0.36800
C939        C  0.12007201  0.94792917  0.18720367    -0.27400
F940        F  0.16650690  0.02574593  0.21290936    -0.19600
H941        H  0.20215078  0.01427118  0.18206877     0.16100
F942        F  0.13313630  0.91814038  0.15704374    -0.23300
H943        H  0.09740096  0.92904206  0.18904661     0.18000
C944        C  0.34651004  0.82165446  0.49596615    -0.27300
C945        C  0.34244117  0.83756119  0.47258563     0.06300
C946        C  0.31336074  0.83236004  0.46663810     0.25900
C947        C  0.28875815  0.81103800  0.48313733    -0.11800
C948        C  0.29220839  0.79455593  0.00545283    -0.25700
C949        C  0.32138083  0.80023101  0.01208920     0.36700
C950        C  0.36773523  0.85762655  0.45257815     0.06300
F951        F  0.30874304  0.84782330  0.44462526    -0.19500
H952        H  0.26657595  0.80735946  0.47799876     0.16100
F953        F  0.32576373  0.78420482  0.03363896    -0.23200
H954        H  0.36827475  0.82497405  0.00020770     0.17900
C955        C  0.39411855  0.88260721  0.46353951     0.25900
C956        C  0.41638866  0.90241699  0.44345926    -0.11800
C957        C  0.41276044  0.89743224  0.41223906    -0.25800
C958        C  0.38674084  0.87164028  0.40163245     0.36800
C959        C  0.36467198  0.85213506  0.42160443    -0.27400
F960        F  0.39777107  0.88851347  0.49344000    -0.19600
H961        H  0.43613853  0.92197204  0.45228876     0.16100
F962        F  0.38194861  0.86555251  0.37181472    -0.23300
H963        H  0.34471079  0.83278668  0.41275406     0.18000
C964        C  0.12801633  0.60941002  0.44112128    -0.27300
C965        C  0.12298295  0.63296735  0.44848735     0.06300
C966        C  0.09860524  0.63364439  0.43506334     0.25900
C967        C  0.08051234  0.61189456  0.41393687    -0.11800
C968        C  0.08619147  0.58887852  0.40558469    -0.25700
C969        C  0.10985875  0.58755770  0.42006982     0.36700
C970        C  0.14427448  0.65753830  0.46872323     0.06300
F971        F  0.09226190  0.65538223  0.44231480    -0.19500
H972        H  0.06229694  0.61350873  0.40369420     0.16100
F973        F  0.11605477  0.56563131  0.41356701    -0.23200
H974        H  0.14673696  0.60843269  0.45098350     0.17900
C975        C  0.15362135  0.65125974  0.49614445     0.25900
C976        C  0.17565938  0.67454272  0.51361671    -0.11800
C977        C  0.18888342  0.70456466  0.50416495    -0.25800
C978        C  0.17868709  0.71091163  0.47730337     0.36800
C979        C  0.15672273  0.68762663  0.45980656    -0.27400
F980        F  0.14154367  0.62258418  0.50600398    -0.19600
H981        H  0.18307864  0.66899068  0.53415534     0.16100
F982        F  0.18999373  0.73963352  0.46788258    -0.23300
H983        H  0.15005964  0.69311042  0.43875272     0.18000
C984        C  0.30809743  0.83230751  0.21113175    -0.27300
C985        C  0.33743361  0.84295106  0.20045222     0.06300
C986        C  0.34149673  0.83279403  0.17256859     0.25900
C987        C  0.31657704  0.81157723  0.15621812    -0.11800
C988        C  0.28718747  0.80007317  0.16736468    -0.25700
C989        C  0.28316988  0.81118335  0.19476779     0.36700
C990        C  0.36344835  0.86272535  0.21974355     0.06300
F991        F  0.36955896  0.84206118  0.16196837    -0.19500
H992        H  0.32034554  0.80318184  0.13536897     0.16100
F993        F  0.25519601  0.80159759  0.20580074    -0.23200
H994        H  0.30454985  0.84010287  0.23247946     0.17900
C995        C  0.38628707  0.89105642  0.20991008     0.25900
C996        C  0.40988413  0.90969363  0.22930315    -0.11800
C997        C  0.41103520  0.90034392  0.25873807    -0.25800
C998        C  0.38851018  0.87155054  0.26809169     0.36800
C999        C  0.36502994  0.85311843  0.24879141    -0.27400
F1000       F  0.38510232  0.90116966  0.18207037    -0.19600
H1001       H  0.42671143  0.93179882  0.22160983     0.16100
F1002       F  0.38884140  0.86121887  0.29607581    -0.23300
H1003       H  0.34783070  0.83121817  0.25662393     0.18000
C1004       C  0.12820235  0.60267404  0.23150418    -0.27300
C1005       C  0.12647825  0.62811874  0.22377841     0.06300
C1006       C  0.10358272  0.63182101  0.23665423     0.25900
C1007       C  0.08409712  0.61141223  0.25811464    -0.11800
C1008       C  0.08705239  0.58695733  0.26730293    -0.25700
C1009       C  0.10881026  0.58229216  0.25295053     0.36700
C1010       C  0.14964941  0.65150043  0.20380447     0.06300
F1011       F  0.10104317  0.65605523  0.22978463    -0.19500
H1012       H  0.06738060  0.61543931  0.26833710     0.16100
F1013       F  0.11180202  0.55831277  0.25983558    -0.23200
H1014       H  0.14503578  0.59883386  0.22125720     0.17900
C1015       C  0.18049624  0.66291901  0.20934663     0.25900
C1016       C  0.20226285  0.68627968  0.19179456    -0.11800
C1017       C  0.19383937  0.69877481  0.16835765    -0.25800
C1018       C  0.16303488  0.68698251  0.16239492     0.36800
C1019       C  0.14122728  0.66353984  0.17991193    -0.27400
F1020       F  0.18967049  0.65240182  0.23256964    -0.19600
H1021       H  0.22581933  0.69490968  0.19677537     0.16100
F1022       F  0.15398402  0.69902604  0.14051959    -0.23300
H1023       H  0.11767578  0.65502029  0.17502913     0.18000
C1024       C  0.21739811  0.72477506  0.65182720     0.04000
C1025       C  0.21707289  0.72510213  0.62024796    -0.12100
C1026       C  0.23823457  0.75051974  0.60380622     0.01500
C1027       C  0.25972496  0.77568444  0.62024907    -0.10700
C1028       C  0.26170270  0.77484643  0.65165911     0.04000
C1029       C  0.24025844  0.74938466  0.66726749    -0.10100
H1030       H  0.20064530  0.70493663  0.60892666     0.09600
H1031       H  0.27539669  0.79627107  0.60901333     0.07100
H1032       H  0.24149079  0.74852441  0.69151115     0.07000
C1033       C  0.21444863  0.72868948  0.52144556     0.04000
C1034       C  0.21343672  0.72968750  0.55299810    -0.12100
C1035       C  0.23874565  0.75048678  0.56987761     0.01500
C1036       C  0.26496671  0.77090755  0.55390917    -0.10700
C1037       C  0.26573024  0.77126650  0.52241654     0.04000
C1038       C  0.24057743  0.74985593  0.50641282    -0.10100
H1039       H  0.19257080  0.71418381  0.56397665     0.09600
H1040       H  0.28518111  0.78682194  0.56554224     0.07100
H1041       H  0.24166095  0.74916306  0.98171298     0.07000
C1042       C  0.24364313  0.96892222  0.65177767     0.04000
C1043       C  0.24179538  0.96540611  0.62044452    -0.12100
C1044       C  0.21639513  0.96158727  0.60425881     0.01500
C1045       C  0.19268166  0.96105483  0.62085525    -0.10700
C1046       C  0.19517357  0.96623726  0.65197977     0.04000
C1047       C  0.22066610  0.97015055  0.66725457    -0.10100
H1048       H  0.26082425  0.96643575  0.60913625     0.09600
H1049       H  0.17227428  0.95712698  0.60990296     0.07100
H1050       H  0.22222692  0.97337839  0.69139760     0.07000
C1051       C  0.23413185  0.95052078  0.52306629     0.04000
C1052       C  0.23383084  0.95107556  0.55458109    -0.12100
C1053       C  0.21495470  0.95885850  0.57040663     0.01500
C1054       C  0.19568336  0.96537920  0.55338446    -0.10700
C1055       C  0.19367090  0.96232101  0.52182955     0.04000
C1056       C  0.21271747  0.95421438  0.50715409    -0.07500
H1057       H  0.24870542  0.94550645  0.56632405     0.09600
H1058       H  0.18274692  0.97375544  0.56440222     0.07100
H1059       H  0.21183108  0.95264486  0.98309164     0.07000
C1060       C  0.50397291  0.74836897  0.64994373     0.04000
C1061       C  0.50177846  0.72391680  0.66585146    -0.12100
C1062       C  0.50017044  0.69936645  0.65073832     0.01500
C1063       C  0.50117263  0.69961684  0.61911111    -0.10700
C1064       C  0.50255424  0.72358475  0.60207338     0.04000
C1065       C  0.50414442  0.74792279  0.61837314    -0.10100
H1066       H  0.50098575  0.72380561  0.69018538     0.09600
H1067       H  0.50054349  0.68058060  0.60834201     0.07100
H1068       H  0.50557733  0.76699337  0.60718615     0.07000
C1069       C  0.50858952  0.74899174  0.51932980     0.04000
C1070       C  0.50817465  0.74899775  0.55087092    -0.12100
C1071       C  0.50255603  0.72337965  0.56781902     0.01500
C1072       C  0.49663114  0.69742363  0.55143729    -0.10700
C1073       C  0.49935233  0.69768139  0.51987177     0.04000
C1074       C  0.50533069  0.72378389  0.50421472    -0.10100
H1075       H  0.51254473  0.76949043  0.56138893     0.09600
H1076       H  0.48897744  0.67638072  0.56288346     0.07100
H1077       H  0.50618641  0.72363712  0.98051392     0.07000
O1078       O  0.02048526  0.91685554  0.86738452    -0.87300
C1079       C  0.06821226  0.56724957  0.79265601     1.12800
O1080       O  0.48978198  0.94779238  0.83536423    -1.35100
O1081       O  0.07492758  0.54847376  0.87138960    -0.88800
O1082       O  0.47050758  0.88784054  0.86787743    -0.89400
O1083       O  0.45711540  0.94385071  0.89905717    -0.78300
O1084       O  0.04901577  0.98346069  0.86378257    -1.00300
C1085       C  0.48066074  0.52703484  0.89178041     1.22800
O1086       O  0.45356589  0.97367984  0.83635419    -1.35200
Mn1087     Mn  0.48627091  0.97745847  0.80325786     1.82100
O1088       O  0.48341598  0.50512084  0.89914703    -0.77300
O1089       O  0.04636249  0.56967862  0.87006011    -0.86700
C1090       C  0.48113359  0.52932545  0.78155391     1.13900
C1091       C  0.06793016  0.56741636  0.88103916     1.08600
O1092       O  0.45644412  0.94527786  0.77249624    -0.78300
O1093       O  0.01583311  0.50926609  0.83626259    -1.32000
O1094       O  0.43068377  0.91569144  0.80745872    -0.97500
C1095       C  0.39494447  0.96594027  0.88182335     1.07300
Mn1096     Mn  0.01379606  0.54948991  0.83662218     1.48600
O1097       O  0.39264309  0.94232548  0.87039203    -0.86700
Mn1098     Mn  0.45242368  0.90350321  0.83496014     1.49600
O1099       O  0.01986093  0.91847299  0.80005686    -0.90600
C1100       C  0.04332957  0.98170682  0.89056783     1.20500
C1101       C  0.49557459  0.89689744  0.78953797     1.12600
Mn1102     Mn  0.48663810  0.97680031  0.86834159     1.81000
O1103       O  0.48002286  0.53212793  0.80860164    -0.95700
Mn1104     Mn  0.03228771  0.95009843  0.83473313     1.49300
C1105       C  0.49651253  0.89472671  0.87753298     1.09100
Mn1106     Mn  0.44624150  0.51034196  0.83631461     1.49900
C1107       C  0.39471831  0.96771212  0.79377633     1.12000
O1108       O  0.43116877  0.91499821  0.86379367    -1.01500
O1109       O  0.04636368  0.56972108  0.80258479    -0.91200
C1110       C  0.43503284  0.91945340  0.89071960     1.23300
O1111       O  0.47958356  0.53186576  0.86509157    -1.01900
O1112       O  0.07533601  0.54899510  0.80369837    -0.89300
O1113       O  0.41431067  0.49335664  0.80189808    -0.88900
O1114       O  0.46983093  0.88925125  0.80037414    -0.88900
Mn1115     Mn  0.06004355  0.51601445  0.83682910     1.47900
O1116       O  0.48386583  0.50776980  0.77259196    -0.77400
C1117       C  0.43426739  0.92089326  0.78060550     1.16300
O1118       O  0.01873377  0.97888270  0.89848648    -0.76100
O1119       O  0.01887746  0.98065235  0.77206338    -0.75700
Mn1120     Mn  0.41314575  0.93112992  0.83622573     1.51100
O1121       O  0.41216551  0.49141012  0.86925878    -0.88100
O1122       O  0.04786289  0.98410820  0.80739155    -0.95600
O1123       O  0.39241791  0.94336039  0.80309907    -0.90600
C1124       C  0.04332224  0.98322251  0.78048814     1.14100
C1125       C  0.46111987  0.57923475  0.93210051    -0.27300
C1126       C  0.48525685  0.59403754  0.95231801     0.06300
C1127       C  0.00627066  0.58413090  0.95443428     0.25900
C1128       C  0.00345690  0.56081682  0.93603002    -0.11800
C1129       C  0.48063788  0.54794682  0.91430386    -0.25700
C1130       C  0.45951959  0.55744402  0.91250622     0.36700
C1131       C  0.48858071  0.62017465  0.97005251     0.06300
F1132       F  0.03058398  0.59804046  0.97275379    -0.19500
H1133       H  0.02025677  0.55412057  0.93741286     0.16100
F1134       F  0.43761996  0.54619801  0.89134760    -0.23200
H1135       H  0.44368271  0.58502986  0.93077404     0.17900
C1136       C  0.48112567  0.64060633  0.95730836     0.25900
C1137       C  0.48315218  0.66429389  0.97422540    -0.11800
C1138       C  0.49546797  0.67071175  0.50302356    -0.25800
C1139       C  0.50390503  0.65084374  0.51553114     0.36800
C1140       C  0.49933285  0.62516093  0.99977077    -0.27400
F1141       F  0.47277566  0.63849662  0.92805886    -0.19600
H1142       H  0.47571012  0.67834831  0.96376899     0.16100
F1143       F  0.51714174  0.65596609  0.54294039    -0.23300
H1144       H  0.50529180  0.61041449  0.51031223     0.18000
C1145       C  0.02830123  0.80717810  0.95849712    -0.27300
C1146       C  0.50857967  0.81803720  0.96546119     0.06300
C1147       C  0.49080947  0.80756871  0.99157801     0.25900
C1148       C  0.49156352  0.78575338  0.00967862    -0.11800
C1149       C  0.51004691  0.77391970  0.00219837    -0.25700
C1150       C  0.02926476  0.78551771  0.97665753     0.36700
C1151       C  0.50565170  0.83878900  0.94430782     0.06300
F1152       F  0.47250138  0.81825374  0.99946387    -0.19500
H1153       H  0.47720622  0.77770450  0.52851791     0.16100
F1154       F  0.04820729  0.77551777  0.96907104    -0.23200
H1155       H  0.04200488  0.81468850  0.93839378     0.17900
C1156       C  0.03134095  0.86436488  0.93265908     0.25900
C1157       C  0.02801698  0.88250641  0.91142394    -0.11800
C1158       C  0.49925418  0.87578161  0.90122912    -0.25800
C1159       C  0.47374515  0.85042914  0.91326104     0.36800
C1160       C  0.47703420  0.83223395  0.93444933    -0.27400
F1161       F  0.05941860  0.87193245  0.94194210    -0.19600
H1162       H  0.04810578  0.90184792  0.90278400     0.16100
F1163       F  0.44555355  0.84273735  0.90428286    -0.23300
H1164       H  0.45708078  0.81245573  0.94265252     0.18000
C1165       C  0.98106388  0.59879988  0.75358466    -0.27300
C1166       C  0.48516484  0.59820370  0.72261784     0.06300
C1167       C  0.48690403  0.57378723  0.71073831     0.25900
C1168       C  0.48506161  0.55111999  0.72972880    -0.11800
C1169       C  0.48105986  0.55206173  0.76087717    -0.25700
C1170       C  0.97846250  0.57595577  0.77241071     0.36700
C1171       C  0.48825673  0.62333405  0.70319753     0.06300
F1172       F  0.48994264  0.57154871  0.68072630    -0.19500
H1173       H  0.48697751  0.53293100  0.72005477     0.16100
F1174       F  0.97353015  0.57765345  0.80212367    -0.23200
H1175       H  0.98005688  0.61736573  0.76358449     0.17900
C1176       C  0.46940045  0.63553111  0.70733576     0.25900
C1177       C  0.47347316  0.66005635  0.69020260    -0.11800
C1178       C  0.49614043  0.67294449  0.66828270    -0.25800
C1179       C  0.51481290  0.66067761  0.66381193     0.36800
C1180       C  0.51097561  0.63627707  0.68120272    -0.27400
F1181       F  0.44663114  0.62350525  0.72764275    -0.19600
H1182       H  0.45859889  0.66887700  0.69388424     0.16100
F1183       F  0.53750246  0.67298646  0.64344515    -0.23300
H1184       H  0.52634130  0.62799398  0.67795670     0.18000
C1185       C  0.48707821  0.80876748  0.67535055    -0.27300
C1186       C  0.50552030  0.82037787  0.70082408     0.06300
C1187       C  0.02522478  0.80945248  0.70822189     0.25900
C1188       C  0.02505405  0.78657328  0.69121659    -0.11800
C1189       C  0.50539619  0.77414832  0.66650552    -0.25700
C1190       C  0.48702397  0.78599536  0.65827350     0.36700
C1191       C  0.50292302  0.84213418  0.72062385     0.06300
F1192       F  0.04317475  0.81979570  0.73285318    -0.19500
H1193       H  0.03983717  0.77829367  0.69767665     0.16100
F1194       F  0.46786267  0.77458637  0.63462389    -0.23200
H1195       H  0.47219848  0.81697248  0.66901735     0.17900
C1196       C  0.52847773  0.86870319  0.73026083     0.25900
C1197       C  0.52580680  0.88697007  0.75179594    -0.11800
C1198       C  0.49758395  0.87924704  0.76407749    -0.25800
C1199       C  0.47176426  0.85374388  0.75265051     0.36800
C1200       C  0.47455108  0.83542759  0.73130978    -0.27400
F1201       F  0.05628499  0.87707296  0.71884937    -0.19600
H1202       H  0.04613633  0.90692285  0.75920673     0.16100
F1203       F  0.44380708  0.84583146  0.76261292    -0.23300
H1204       H  0.45449797  0.81527541  0.72391739     0.18000
C1205       C  0.32967360  0.93116983  0.93772499    -0.27300
C1206       C  0.32978134  0.95655945  0.94909501     0.06300
C1207       C  0.34365123  0.48155269  0.92923240     0.25900
C1208       C  0.36561401  0.48522147  0.90836397    -0.11800
C1209       C  0.37366597  0.96258148  0.90647468    -0.25700
C1210       C  0.35126202  0.93399253  0.91678429     0.36700
C1211       C  0.30516792  0.95307653  0.96940493     0.06300
F1212       F  0.33822902  0.50441988  0.93352268    -0.19500
H1213       H  0.37780524  0.50632118  0.89643888     0.16100
F1214       F  0.34955528  0.90854935  0.90620764    -0.23200
H1215       H  0.31252451  0.90895824  0.94484359     0.17900
C1216       C  0.27477624  0.93439729  0.96137363     0.25900
C1217       C  0.25176427  0.93259516  0.97962364    -0.11800
C1218       C  0.25842099  0.94948964  0.00620853    -0.25800
C1219       C  0.28885453  0.96723888  0.51475665     0.36800
C1220       C  0.31185353  0.96921180  0.99644615    -0.27400
F1221       F  0.26730578  0.91902072  0.93507345    -0.19600
H1222       H  0.22864611  0.91848013  0.97252389     0.16100
F1223       F  0.29649525  0.98508012  0.53940023    -0.23300
H1224       H  0.33506138  0.98352452  0.50334107     0.18000
C1225       C  0.07569094  0.95710233  0.95334863    -0.27300
C1226       C  0.10668821  0.97828000  0.95116336     0.06300
C1227       C  0.11442894  0.49644684  0.92891879     0.25900
C1228       C  0.09396900  0.49821309  0.90963880    -0.11800
C1229       C  0.06451180  0.98133925  0.91259256    -0.25700
C1230       C  0.05472467  0.95913866  0.93489700     0.36700
C1231       C  0.12916477  0.97536342  0.97013952     0.06300
F1232       F  0.14399826  0.51744034  0.92623059    -0.19500
H1233       H  0.10237194  0.51491447  0.89197427     0.16100
F1234       F  0.02508137  0.93842466  0.93772349    -0.23200
H1235       H  0.06757294  0.93840084  0.96876228     0.17900
C1236       C  0.12296633  0.96507983  0.00011739     0.25900
C1237       C  0.14409782  0.96118332  0.51655921    -0.11800
C1238       C  0.17199647  0.96784320  0.50416027    -0.25800
C1239       C  0.17878715  0.98046560  0.97523823     0.36800
C1240       C  0.15727350  0.98263218  0.95805154    -0.27400
F1241       F  0.09776622  0.96049862  0.51382877    -0.19600
H1242       H  0.13804919  0.95243762  0.53916744     0.16100
F1243       F  0.20098669  0.47833036  0.95840581    -0.23300
H1244       H  0.15778965  0.47975269  0.93206173     0.18000
C1245       C  0.32702567  0.94180680  0.74269554    -0.27300
C1246       C  0.33566648  0.96761367  0.72524664     0.06300
C1247       C  0.36466545  0.99258244  0.72911795     0.25900
C1248       C  0.38392441  0.99216057  0.75099926    -0.11800
C1249       C  0.37490006  0.96671497  0.76915026    -0.25700
C1250       C  0.34648391  0.94118057  0.76425435     0.36700
C1251       C  0.31371583  0.96893188  0.70451787     0.06300
F1252       F  0.37164987  0.52128668  0.71530161    -0.19500
H1253       H  0.40392275  0.51502154  0.75595576     0.16100
F1254       F  0.33685203  0.91613430  0.78125999    -0.23200
H1255       H  0.30472086  0.92240145  0.74038535     0.17900
C1256       C  0.29630594  0.94526035  0.68457356     0.25900
C1257       C  0.27429588  0.94597185  0.66671428    -0.11800
C1258       C  0.26899417  0.97004259  0.66865698    -0.25800
C1259       C  0.28676180  0.99399468  0.68807738     0.36800
C1260       C  0.30893443  0.99342381  0.70576431    -0.27400
F1261       F  0.30048408  0.92139842  0.68242086    -0.19600
H1262       H  0.26072657  0.92726148  0.65194546     0.16100
F1263       F  0.28255446  0.01784859  0.69003558    -0.23300
H1264       H  0.32178570  0.01176722  0.72115353     0.18000
C1265       C  0.11481301  0.98892381  0.75069337    -0.27300
C1266       C  0.10642242  0.97733988  0.72155068     0.06300
C1267       C  0.07717632  0.96847782  0.71141262     0.25900
C1268       C  0.05690626  0.97136513  0.73018851    -0.11800
C1269       C  0.06537907  0.98284415  0.75941782    -0.25700
C1270       C  0.09471764  0.99178221  0.76938996     0.36700
C1271       C  0.12854113  0.97476790  0.70222645     0.06300
F1272       F  0.06804199  0.46071703  0.68078164    -0.19500
H1273       H  0.03518589  0.46752641  0.72093424     0.16100
F1274       F  0.10410926  0.00325861  0.79734776    -0.23200
H1275       H  0.13699762  0.99547108  0.75922457     0.17900
C1276       C  0.15818958  0.99901261  0.69958143     0.25900
C1277       C  0.17957999  0.99595341  0.68316565    -0.11800
C1278       C  0.17179637  0.96892906  0.66862435    -0.25800
C1279       C  0.14208873  0.94484694  0.67060194     0.36800
C1280       C  0.12068838  0.94773307  0.68743440    -0.27400
F1281       F  0.16641620  0.02582852  0.71260203    -0.19600
H1282       H  0.20231948  0.01482273  0.68161264     0.16100
F1283       F  0.13408956  0.91829657  0.65712493    -0.23300
H1284       H  0.09816101  0.92863667  0.68947051     0.18000
C1285       C  0.34612451  0.82155077  0.99545778    -0.27300
C1286       C  0.34208550  0.83732413  0.97193081     0.06300
C1287       C  0.31302685  0.83210217  0.96582268     0.25900
C1288       C  0.28841893  0.81094168  0.98241312    -0.11800
C1289       C  0.29255530  0.79447255  0.50597553    -0.25700
C1290       C  0.32176796  0.80018746  0.51253538     0.36700
C1291       C  0.36746907  0.85740828  0.95208569     0.06300
F1292       F  0.30844235  0.84740941  0.94361281    -0.19500
H1293       H  0.26624428  0.80724165  0.97719018     0.16100
F1294       F  0.32619419  0.78405878  0.53393634    -0.23200
H1295       H  0.36867109  0.82506435  0.50062145     0.17900
C1296       C  0.39378896  0.88229980  0.96326337     0.25900
C1297       C  0.41622598  0.90215346  0.94338033    -0.11800
C1298       C  0.41280584  0.89729190  0.91215426    -0.25800
C1299       C  0.38685318  0.87155794  0.90131914     0.36800
C1300       C  0.36461447  0.85200988  0.92110278    -0.27400
F1301       F  0.39721080  0.88808304  0.99318950    -0.19600
H1302       H  0.43592793  0.92165425  0.95235969     0.16100
F1303       F  0.38229936  0.86556404  0.87146362    -0.23300
H1304       H  0.34470726  0.83270724  0.91210472     0.18000
C1305       C  0.12784914  0.60924135  0.94102960    -0.27300
C1306       C  0.12296796  0.63294052  0.94814236     0.06300
C1307       C  0.09869514  0.63371355  0.93461345     0.25900
C1308       C  0.08048992  0.61185606  0.91365121    -0.11800
C1309       C  0.08601522  0.58868970  0.90551992    -0.25700
C1310       C  0.10962726  0.58732211  0.92007085     0.36700
C1311       C  0.14430181  0.65757900  0.96822303     0.06300
F1312       F  0.09259801  0.65568084  0.94158033    -0.19500
H1313       H  0.06234271  0.61353143  0.90332543     0.16100
F1314       F  0.11570937  0.56529441  0.91371472    -0.23200
H1315       H  0.14650026  0.60821577  0.95100766     0.17900
C1316       C  0.15320187  0.65143862  0.99596888     0.25900
C1317       C  0.17513000  0.67479470  0.01344551    -0.11800
C1318       C  0.18867694  0.70473933  0.00365209    -0.25800
C1319       C  0.17895243  0.71093474  0.97638813     0.36800
C1320       C  0.15711061  0.68757609  0.95889931    -0.27400
F1321       F  0.14077389  0.62283335  0.00614513    -0.19600
H1322       H  0.18220966  0.66934427  0.03426407     0.16100
F1323       F  0.19058075  0.73957382  0.96656128    -0.23300
H1324       H  0.15077195  0.69291593  0.93757484     0.18000
C1325       C  0.30875812  0.83142644  0.71186909    -0.27300
C1326       C  0.33802099  0.84202251  0.70101559     0.06300
C1327       C  0.34193928  0.83205831  0.67296958     0.25900
C1328       C  0.31693598  0.81104258  0.65660408    -0.11800
C1329       C  0.28760276  0.79958917  0.66788180    -0.25700
C1330       C  0.28373435  0.81054354  0.69546208     0.36700
C1331       C  0.36413654  0.86179321  0.72014054     0.06300
F1332       F  0.36994525  0.84135574  0.66218831    -0.19500
H1333       H  0.32059929  0.80276271  0.63562617     0.16100
F1334       F  0.25582240  0.80106192  0.70661410    -0.23200
H1335       H  0.30534220  0.83912253  0.73333763     0.17900
C1336       C  0.38669627  0.89023030  0.71026330     0.25900
C1337       C  0.41023933  0.90905390  0.72958323    -0.11800
C1338       C  0.41161189  0.89976237  0.75896879    -0.25800
C1339       C  0.38953290  0.87076665  0.76828666     0.36800
C1340       C  0.36605406  0.85215939  0.74907233    -0.27400
F1341       F  0.38524029  0.90027855  0.68247532    -0.19600
H1342       H  0.42679448  0.93127366  0.72190517     0.16100
F1343       F  0.39030217  0.86042831  0.79614959    -0.23300
H1344       H  0.34910323  0.83014117  0.75688703     0.18000
C1345       C  0.12794276  0.60260832  0.73177219    -0.27300
C1346       C  0.12642045  0.62820606  0.72427078     0.06300
C1347       C  0.10362897  0.63201916  0.73723109     0.25900
C1348       C  0.08402281  0.61152601  0.75856046    -0.11800
C1349       C  0.08678281  0.58690013  0.76752746    -0.25700
C1350       C  0.10844167  0.58215113  0.75308723     0.36700
C1351       C  0.14966700  0.65157894  0.70438356     0.06300
F1352       F  0.10131700  0.65642657  0.73057576    -0.19500
H1353       H  0.06738675  0.61562027  0.76887010     0.16100
F1354       F  0.11123543  0.55801497  0.75976978    -0.23200
H1355       H  0.14470140  0.59870205  0.72144885     0.17900
C1356       C  0.18047852  0.66278975  0.70991454     0.25900
C1357       C  0.20232710  0.68603939  0.69233251    -0.11800
C1358       C  0.19400867  0.69862218  0.66889350    -0.25800
C1359       C  0.16323860  0.68708145  0.66298946     0.36800
C1360       C  0.14134830  0.66374267  0.68052768    -0.27400
F1361       F  0.18953969  0.65215990  0.73313473    -0.19600
H1362       H  0.22586254  0.69451230  0.69728441     0.16100
F1363       F  0.15431835  0.69927220  0.64114495    -0.23300
H1364       H  0.11781912  0.65538636  0.67567804     0.18000
C1365       C  0.71906221  0.22655355  0.15130469     0.04000
C1366       C  0.71887748  0.22561355  0.11969645    -0.12100
C1367       C  0.74009920  0.25037779  0.10254814     0.01500
C1368       C  0.76192310  0.27595468  0.11826594    -0.10700
C1369       C  0.76371049  0.27635300  0.14968204     0.04000
C1370       C  0.74196280  0.25176845  0.16605840    -0.10100
H1371       H  0.70236381  0.20513834  0.10889321     0.09600
H1372       H  0.77783634  0.29609901  0.10657581     0.07100
H1373       H  0.74298342  0.25218784  0.19037840     0.07000
C1374       C  0.71438712  0.22832168  0.02063054     0.04000
C1375       C  0.71415733  0.22890522  0.05223982    -0.12100
C1376       C  0.73994293  0.24959948  0.06864350     0.01500
C1377       C  0.76582625  0.26983981  0.05218064    -0.10700
C1378       C  0.76581475  0.27034412  0.02071322     0.04000
C1379       C  0.74022340  0.24922869  0.00518175    -0.10100
H1380       H  0.69353062  0.21339072  0.06358350     0.09600
H1381       H  0.78629638  0.28566792  0.06342556     0.07100
H1382       H  0.74115299  0.24864466  0.48073357     0.07000
C1383       C  0.74235552  0.46754137  0.15020027     0.04000
C1384       C  0.74109039  0.46449983  0.11875825    -0.12100
C1385       C  0.71562220  0.45995272  0.10220067     0.01500
C1386       C  0.69148507  0.45902862  0.11840574    -0.10700
C1387       C  0.69342134  0.46407375  0.14952446     0.04000
C1388       C  0.71865477  0.46789811  0.16526281    -0.10100
H1389       H  0.76051349  0.46623805  0.10763921     0.09600
H1390       H  0.67108158  0.45476583  0.10721430     0.07100
H1391       H  0.71941367  0.47047789  0.18946204     0.07000
C1392       C  0.73232865  0.44572472  0.02160784     0.04000
C1393       C  0.73357785  0.44885936  0.05296752    -0.12100
C1394       C  0.71417852  0.45622368  0.06842171     0.01500
C1395       C  0.69391694  0.46095723  0.05102812    -0.10700
C1396       C  0.69077767  0.45567847  0.01977815     0.04000
C1397       C  0.70957541  0.44696891  0.00562264    -0.07500
H1398       H  0.75007020  0.44565357  0.06473159     0.09600
H1399       H  0.68109731  0.46974992  0.06148601     0.07100
H1400       H  0.70652851  0.44056983  0.48198891     0.07000
C1401       C  0.99677631  0.24235961  0.15048960     0.04000
C1402       C  0.99613248  0.21804638  0.16514624    -0.12100
C1403       C  0.99750603  0.19562646  0.14889779     0.01500
C1404       C  0.00037239  0.19796722  0.11755276    -0.10700
C1405       C  0.99951199  0.22135989  0.10169189     0.04000
C1406       C  0.99740675  0.24335319  0.11888484    -0.10100
H1407       H  0.99443476  0.21645969  0.18943047     0.09600
H1408       H  0.00286135  0.18098724  0.10601968     0.07100
H1409       H  0.99674945  0.26178458  0.10823781     0.07000
C1410       C  0.01096034  0.25095831  0.02043713     0.04000
C1411       C  0.00814964  0.24937876  0.05185205    -0.12100
C1412       C  0.00151892  0.22296395  0.06770384     0.01500
C1413       C  0.99690569  0.19790643  0.05053691    -0.10700
C1414       C  0.00229622  0.19996191  0.01936935     0.04000
C1415       C  0.00936700  0.22678877  0.00467161    -0.10100
H1416       H  0.01142432  0.26919441  0.06333632     0.09600
H1417       H  0.98835707  0.17629062  0.06102304     0.07100
H1418       H  0.01304348  0.22926636  0.48061453     0.07000
O1419       O  0.51922356  0.41591856  0.36749891    -0.87300
C1420       C  0.56736790  0.06871743  0.29109427     1.12800
O1421       O  0.98947224  0.44731329  0.33491812    -1.35100
O1422       O  0.57555439  0.05065933  0.36934792    -0.88800
O1423       O  0.96909462  0.38780440  0.36863363    -0.89400
O1424       O  0.95605053  0.44339766  0.39806323    -0.78300
O1425       O  0.54810907  0.48211116  0.36435462    -1.00300
C1426       C  0.98236721  0.02883324  0.39167763     1.22800
O1427       O  0.95355168  0.47357253  0.33531473    -1.35200
Mn1428     Mn  0.98682653  0.47758474  0.30284172     1.82100
O1429       O  0.98457830  0.00666842  0.39937830    -0.77300
O1430       O  0.54705638  0.07190792  0.36790035    -0.86700
C1431       C  0.97967524  0.02868295  0.28133672     1.13900
C1432       C  0.56902170  0.07006291  0.37842151     1.08600
O1433       O  0.95740126  0.44582021  0.27170519    -0.78300
O1434       O  0.51569658  0.01035622  0.33583786    -1.32000
O1435       O  0.93079871  0.41540694  0.30597651    -0.97500
C1436       C  0.89332181  0.46567159  0.37827584     1.07300
Mn1437     Mn  0.51344246  0.05053412  0.33558625     1.48600
O1438       O  0.89167719  0.44213770  0.36749941    -0.86700
Mn1439     Mn  0.95179167  0.40320649  0.33468685     1.49600
O1440       O  0.51949869  0.41701102  0.30069328    -0.90600
C1441       C  0.54215302  0.48010288  0.39107623     1.20500
C1442       C  0.99494540  0.39473743  0.29112316     1.12600
Mn1443     Mn  0.98605322  0.47615224  0.36791587     1.81000
O1444       O  0.97894137  0.03249072  0.30832167    -0.95700
Mn1445     Mn  0.53177520  0.44909137  0.33503902     1.49300
C1446       C  0.99508777  0.39426835  0.37792488     1.09100
Mn1447     Mn  0.94621705  0.01075398  0.33755079     1.49900
C1448       C  0.89613891  0.46827167  0.29048424     1.12000
O1449       O  0.93028126  0.41502339  0.36247638    -1.01500
O1450       O  0.54517095  0.07068652  0.30082979    -0.91200
C1451       C  0.93390868  0.41929589  0.38942130     1.23300
O1452       O  0.98047141  0.03290741  0.36496176    -1.01900
O1453       O  0.57469231  0.05056494  0.30212995    -0.89300
O1454       O  0.91305722  0.99313488  0.30448235    -0.88900
O1455       O  0.96943003  0.38799489  0.30176358    -0.88900
Mn1456     Mn  0.56008922  0.01771959  0.33567449     1.47900
O1457       O  0.98255985  0.00709233  0.27302352    -0.77400
C1458       C  0.93514192  0.42121290  0.27922317     1.16300
O1459       O  0.51763666  0.47764203  0.39876414    -0.76100
O1460       O  0.51967614  0.48070667  0.27238896    -0.75700
Mn1461     Mn  0.91298382  0.43115647  0.33414409     1.51100
O1462       O  0.91367390  0.99209157  0.37217720    -0.88100
O1463       O  0.54831209  0.48330084  0.30780693    -0.95600
O1464       O  0.89331485  0.44381592  0.30022512    -0.90600
C1465       C  0.54376574  0.48242340  0.28084309     1.14100
C1466       C  0.96693443  0.08498760  0.42948600    -0.27300
C1467       C  0.99064505  0.09866862  0.45035001     0.06300
C1468       C  0.50956137  0.08655721  0.45381570     0.25900
C1469       C  0.50561471  0.06244003  0.43598385    -0.11800
C1470       C  0.98350565  0.05071137  0.41367010    -0.25700
C1471       C  0.96411913  0.06221448  0.41060339     0.36700
C1472       C  0.99491440  0.12531651  0.46783804     0.06300
F1473       F  0.53335512  0.09922996  0.47289137    -0.19500
H1474       H  0.52123436  0.05431442  0.43824774     0.16100
F1475       F  0.94266858  0.05180301  0.38893568    -0.23200
H1476       H  0.95064459  0.09223015  0.42724808     0.17900
C1477       C  0.98877228  0.14654755  0.45469600     0.25900
C1478       C  0.99028678  0.16993087  0.47172836    -0.11800
C1479       C  0.99978789  0.17398161  0.00190548    -0.25800
C1480       C  0.00803583  0.15401243  0.01441743     0.36800
C1481       C  0.00455689  0.12961723  0.49794586    -0.27400
F1482       F  0.98188779  0.14530922  0.42508441    -0.19600
H1483       H  0.98368166  0.18453338  0.46101083     0.16100
F1484       F  0.02007744  0.15846589  0.04237964    -0.23300
H1485       H  0.00970556  0.11379752  0.00887594     0.18000
C1486       C  0.53100413  0.31104987  0.46113827    -0.27300
C1487       C  0.00852843  0.31864407  0.46569883     0.06300
C1488       C  0.98867628  0.30564551  0.49010943     0.25900
C1489       C  0.99072019  0.28496551  0.50879234    -0.11800
C1490       C  0.01250860  0.27677685  0.50356395    -0.25700
C1491       C  0.53307500  0.29044412  0.47993032     0.36700
C1492       C  0.00504854  0.33878104  0.44421055     0.06300
F1493       F  0.96703725  0.31264389  0.49574616    -0.19500
H1494       H  0.97525911  0.27505899  0.02681870     0.16100
F1495       F  0.55489550  0.28361205  0.47468304    -0.23200
H1496       H  0.54640072  0.32041236  0.44238441     0.17900
C1497       C  0.53015686  0.36528128  0.43395609     0.25900
C1498       C  0.52660460  0.38323235  0.41279032    -0.11800
C1499       C  0.99792375  0.37551242  0.40158395    -0.25800
C1500       C  0.97273057  0.34915981  0.41236684     0.36800
C1501       C  0.97639850  0.33093308  0.43315768    -0.27400
F1502       F  0.55815038  0.37423779  0.44461137    -0.19600
H1503       H  0.54650962  0.40335576  0.40510663     0.16100
F1504       F  0.94457980  0.34048666  0.40241024    -0.23300
H1505       H  0.95674075  0.31024524  0.44017783     0.18000
C1506       C  0.47662989  0.09563029  0.24971112    -0.27300
C1507       C  0.98392802  0.09502033  0.21908459     0.06300
C1508       C  0.98851108  0.07181606  0.20893247     0.25900
C1509       C  0.98634479  0.04981092  0.22902029    -0.11800
C1510       C  0.97970355  0.05058986  0.25957449    -0.25700
C1511       C  0.47463620  0.07386353  0.26970454     0.36700
C1512       C  0.98639985  0.11903710  0.19865057     0.06300
F1513       F  0.99470799  0.07018187  0.17959431    -0.19500
H1514       H  0.99030217  0.03239921  0.22072786     0.16100
F1515       F  0.46849953  0.07592318  0.29897318    -0.23200
H1516       H  0.47365318  0.11358116  0.25828339     0.17900
C1517       C  0.96440945  0.12757739  0.19938167     0.25900
C1518       C  0.96824821  0.15224386  0.18287657    -0.11800
C1519       C  0.99378529  0.16875491  0.16489470    -0.25800
C1520       C  0.01530146  0.15966548  0.16304062     0.36800
C1521       C  0.01166024  0.13506182  0.17994218    -0.27400
F1522       F  0.93912039  0.11207681  0.21616037    -0.19600
H1523       H  0.95117360  0.15857771  0.18418051     0.16100
F1524       F  0.04039234  0.17532956  0.14602098    -0.23300
H1525       H  0.02909261  0.12920315  0.17923469     0.18000
C1526       C  0.97952685  0.30100660  0.18092213    -0.27300
C1527       C  0.99947120  0.31256647  0.20540107     0.06300
C1528       C  0.51924421  0.30148713  0.21112691     0.25900
C1529       C  0.51826753  0.27905347  0.19281737    -0.11800
C1530       C  0.99781257  0.26704860  0.16865862    -0.25700
C1531       C  0.97864934  0.27849087  0.16267732     0.36700
C1532       C  0.99861193  0.33485393  0.22584349     0.06300
F1533       F  0.53804051  0.31104011  0.23516701    -0.19500
H1534       H  0.53326717  0.27062074  0.19774241     0.16100
F1535       F  0.95824557  0.26712418  0.14002965    -0.23200
H1536       H  0.96432707  0.30922986  0.17613754     0.17900
C1537       C  0.02499452  0.36125871  0.23445630     0.25900
C1538       C  0.02363531  0.38103419  0.25505085    -0.11800
C1539       C  0.99597940  0.37493517  0.26746330    -0.25800
C1540       C  0.96950204  0.34880720  0.25807731     0.36800
C1541       C  0.97095463  0.32916771  0.23755028    -0.27400
F1542       F  0.55250450  0.36842633  0.22301530    -0.19600
H1543       H  0.54456912  0.40118687  0.26170912     0.16100
F1544       F  0.94210328  0.34161758  0.26914573    -0.23300
H1545       H  0.95036559  0.30894923  0.23134616     0.18000
C1546       C  0.83230662  0.43121593  0.43838058    -0.27300
C1547       C  0.82666698  0.45462541  0.44415416     0.06300
C1548       C  0.85224710  0.98462857  0.43965956     0.25900
C1549       C  0.87376277  0.98772937  0.41844854    -0.11800
C1550       C  0.87129470  0.46217073  0.40196674    -0.25700
C1551       C  0.85425556  0.43481478  0.41756240     0.36700
C1552       C  0.80271964  0.45026496  0.46575983     0.06300
F1553       F  0.85242369  0.00959297  0.44945441    -0.19500
H1554       H  0.89003975  0.01002283  0.41078158     0.16100
F1555       F  0.85866905  0.41139467  0.41278493    -0.23200
H1556       H  0.81966960  0.41002133  0.45009378     0.17900
C1557       C  0.77317045  0.42579389  0.46307448     0.25900
C1558       C  0.75037300  0.42328519  0.48219491    -0.11800
C1559       C  0.75668657  0.44482155  0.50460279    -0.25800
C1560       C  0.78681603  0.46868644  0.00841570     0.36800
C1561       C  0.80914667  0.47124350  0.48875156    -0.27400
F1562       F  0.76600242  0.40515266  0.44100802    -0.19600
H1563       H  0.72757693  0.40495138  0.47899597     0.16100
F1564       F  0.79372349  0.49050964  0.02911116    -0.23300
H1565       H  0.83216084  0.48980700  0.99211152     0.18000
C1566       C  0.57264738  0.45356408  0.45394674    -0.27300
C1567       C  0.60393125  0.47280854  0.45069284     0.06300
C1568       C  0.61621589  0.00094881  0.42868293     0.25900
C1569       C  0.59538657  0.00189991  0.40924996    -0.11800
C1570       C  0.56286931  0.47884388  0.41313943    -0.25700
C1571       C  0.55228125  0.45704930  0.43592374     0.36700
C1572       C  0.62567683  0.46795273  0.46870203     0.06300
F1573       F  0.64549874  0.02274175  0.42608941    -0.19500
H1574       H  0.60334762  0.01874788  0.39175007     0.16100
F1575       F  0.52234149  0.43782257  0.43942178    -0.23200
H1576       H  0.56381475  0.43511871  0.46974136     0.17900
C1577       C  0.62037822  0.45905908  0.49908867     0.25900
C1578       C  0.64143595  0.45490272  0.01513453    -0.11800
C1579       C  0.66861345  0.46025897  0.00196399    -0.25800
C1580       C  0.67340438  0.46868831  0.47165128     0.36800
C1581       C  0.65217075  0.47203584  0.45523694    -0.27400
F1582       F  0.59623299  0.45646592  0.01372778    -0.19600
H1583       H  0.63589871  0.44687372  0.03802131     0.16100
F1584       F  0.70600144  0.98910247  0.46169995    -0.23300
H1585       H  0.66232074  0.98817068  0.43386631     0.18000
C1586       C  0.83062943  0.44107181  0.23583526    -0.27300
C1587       C  0.83659444  0.46809003  0.22221442     0.06300
C1588       C  0.86363562  0.49449850  0.22909367     0.25900
C1589       C  0.88333411  0.49413136  0.25049200    -0.11800
C1590       C  0.87665421  0.46740761  0.26538077    -0.25700
C1591       C  0.85048505  0.44058755  0.25703482     0.36700
C1592       C  0.81373587  0.46893885  0.20246570     0.06300
F1593       F  0.87429477  0.01746876  0.21160563    -0.19500
H1594       H  0.90579230  0.01193554  0.25374238     0.16100
F1595       F  0.84326037  0.41408245  0.27024984    -0.23200
H1596       H  0.80994495  0.42043366  0.23092340     0.17900
C1597       C  0.80007197  0.44830137  0.17887911     0.25900
C1598       C  0.77749203  0.44853604  0.16153455    -0.11800
C1599       C  0.76790659  0.46915220  0.16746859    -0.25800
C1600       C  0.78196832  0.49012874  0.19075797     0.36800
C1601       C  0.80458028  0.48993033  0.20802321    -0.27400
F1602       F  0.80861170  0.42797621  0.17253262    -0.19600
H1603       H  0.76693179  0.43204919  0.14386168     0.16100
F1604       F  0.77402438  0.51096870  0.19674821    -0.23300
H1605       H  0.81456347  0.50587501  0.22623408     0.18000
C1606       C  0.61315975  0.48362578  0.25004275    -0.27300
C1607       C  0.60506169  0.47493543  0.22007736     0.06300
C1608       C  0.57663351  0.46884928  0.20995381     0.25900
C1609       C  0.55700331  0.47204981  0.22946819    -0.11800
C1610       C  0.56518871  0.48087320  0.25952052    -0.25700
C1611       C  0.59353306  0.48639373  0.26961968     0.36700
C1612       C  0.62673873  0.47258761  0.19986146     0.06300
F1613       F  0.56807734  0.95812881  0.18296026    -0.19500
H1614       H  0.53423430  0.96491166  0.22179293     0.16100
F1615       F  0.60242344  0.49440496  0.29851558    -0.23200
H1616       H  0.63475867  0.48799351  0.25843745     0.17900
C1617       C  0.65626742  0.49690389  0.19690853     0.25900
C1618       C  0.67755962  0.49394172  0.18016479    -0.11800
C1619       C  0.66982635  0.46685009  0.16575540    -0.25800
C1620       C  0.64011198  0.44274198  0.16786146     0.36800
C1621       C  0.61875508  0.44561192  0.18488368    -0.27400
F1622       F  0.66451293  0.52358205  0.21025043    -0.19600
H1623       H  0.70027075  0.51284370  0.17851058     0.16100
F1624       F  0.63213432  0.41613385  0.15452660    -0.23300
H1625       H  0.59623546  0.42651334  0.18712532     0.18000
C1626       C  0.84663447  0.32123683  0.49378518    -0.27300
C1627       C  0.84192945  0.33587094  0.46965653     0.06300
C1628       C  0.81265329  0.32960461  0.46305377     0.25900
C1629       C  0.78838469  0.30855313  0.48000719    -0.11800
C1630       C  0.79215889  0.29352321  0.00379559    -0.25700
C1631       C  0.82173415  0.30069858  0.01090853     0.36700
C1632       C  0.86711564  0.35628414  0.45009225     0.06300
F1633       F  0.80757958  0.34388631  0.44014097    -0.19500
H1634       H  0.76601773  0.30418066  0.47455706     0.16100
F1635       F  0.82710326  0.28604626  0.03319268    -0.23200
H1636       H  0.86854600  0.32695175  0.99928858     0.17900
C1637       C  0.89182689  0.38261371  0.46131400     0.25900
C1638       C  0.91410271  0.40281555  0.44165259    -0.11800
C1639       C  0.91202846  0.39685198  0.41064507    -0.25800
C1640       C  0.88780501  0.36969359  0.39982391     0.36800
C1641       C  0.86563585  0.34978126  0.41941425    -0.27400
F1642       F  0.89369229  0.38936239  0.49098600    -0.19600
H1643       H  0.93250281  0.42345467  0.45056613     0.16100
F1644       F  0.88497910  0.36255662  0.37018377    -0.23300
H1645       H  0.84689583  0.32934399  0.41053263     0.18000
C1646       C  0.63212356  0.11460764  0.43441788    -0.27300
C1647       C  0.62495669  0.13595030  0.44462638     0.06300
C1648       C  0.59918496  0.13530939  0.43320559     0.25900
C1649       C  0.58094276  0.11356439  0.41217692    -0.11800
C1650       C  0.58806867  0.09210832  0.40182599    -0.25700
C1651       C  0.61409140  0.09303494  0.41319298     0.36700
C1652       C  0.64534808  0.15952917  0.46603310     0.06300
F1653       F  0.59148878  0.15556159  0.44251449    -0.19500
H1654       H  0.56129083  0.11376701  0.40381588     0.16100
F1655       F  0.62279754  0.07376906  0.40329735    -0.23200
H1656       H  0.65228805  0.11514150  0.44232641     0.17900
C1657       C  0.65549216  0.15205303  0.49221937     0.25900
C1658       C  0.67698971  0.17459280  0.51068718    -0.11800
C1659       C  0.68891903  0.20494953  0.50329785    -0.25800
C1660       C  0.67786097  0.21243340  0.47778460     0.36800
C1661       C  0.65629158  0.18989874  0.45938494    -0.27400
F1662       F  0.64494613  0.12293548  0.49970048    -0.19600
H1663       H  0.68525684  0.16830892  0.53012933     0.16100
F1664       F  0.68831184  0.24155128  0.47034981    -0.23300
H1665       H  0.64895775  0.19622272  0.43928153     0.18000
C1666       C  0.81010841  0.33676475  0.20695145    -0.27300
C1667       C  0.83943249  0.34495389  0.19815790     0.06300
C1668       C  0.84382154  0.33236501  0.17213233     0.25900
C1669       C  0.81905403  0.31091142  0.15580985    -0.11800
C1670       C  0.78956010  0.30166140  0.16525535    -0.25700
C1671       C  0.78530467  0.31540548  0.19055950     0.36700
C1672       C  0.86507766  0.36440683  0.21776082     0.06300
F1673       F  0.87198360  0.33968380  0.16345121    -0.19500
H1674       H  0.82288795  0.30056041  0.13647515     0.16100
F1675       F  0.75720285  0.30801718  0.19951971    -0.23200
H1676       H  0.80646799  0.34649527  0.22691392     0.17900
C1677       C  0.88549156  0.39432358  0.21004937     0.25900
C1678       C  0.90915461  0.41248253  0.22954175    -0.11800
C1679       C  0.91269070  0.40100637  0.25695363    -0.25800
C1680       C  0.89263489  0.37069603  0.26407209     0.36800
C1681       C  0.86903614  0.35268752  0.24464038    -0.27400
F1682       F  0.88195477  0.40615719  0.18418711    -0.19600
H1683       H  0.92404016  0.43579629  0.22371108     0.16100
F1684       F  0.89566463  0.35848077  0.28992615    -0.23300
H1685       H  0.85364170  0.32951946  0.25063759     0.18000
C1686       C  0.62820770  0.10597296  0.23142993    -0.27300
C1687       C  0.62706491  0.13194454  0.22489004     0.06300
C1688       C  0.60440548  0.13570605  0.23817984     0.25900
C1689       C  0.58423588  0.11446937  0.25872470    -0.11800
C1690       C  0.58633694  0.08914802  0.26651669    -0.25700
C1691       C  0.60814760  0.08476985  0.25190093     0.36700
C1692       C  0.65052353  0.15556262  0.20544334     0.06300
F1693       F  0.60278857  0.16069225  0.23256654    -0.19500
H1694       H  0.56770113  0.11848835  0.26939096     0.16100
F1695       F  0.61056858  0.06026665  0.25764674    -0.23200
H1696       H  0.64509859  0.10234448  0.22097636     0.17900
C1697       C  0.68120083  0.16756804  0.21216603     0.25900
C1698       C  0.70331556  0.19015987  0.19419916    -0.11800
C1699       C  0.69537296  0.20125495  0.16912740    -0.25800
C1700       C  0.66466446  0.18904991  0.16223921     0.36800
C1701       C  0.64250807  0.16647482  0.18030499    -0.27400
F1702       F  0.68977856  0.15810463  0.23671320    -0.19600
H1703       H  0.72675350  0.19913506  0.19999571     0.16100
F1704       F  0.65602886  0.19972386  0.13872058    -0.23300
H1705       H  0.61902891  0.15752244  0.17470578     0.18000
C1706       C  0.71905584  0.22652789  0.65106641     0.04000
C1707       C  0.71914460  0.22556925  0.61946904    -0.12100
C1708       C  0.74036713  0.25038999  0.60239364     0.01500
C1709       C  0.76203136  0.27601313  0.61814786    -0.10700
C1710       C  0.76354582  0.27645778  0.64957665     0.04000
C1711       C  0.74172344  0.25186708  0.66589469    -0.10100
H1712       H  0.70286468  0.20502199  0.60860130     0.09600
H1713       H  0.77802766  0.29613192  0.60646408     0.07100
H1714       H  0.74255435  0.25237187  0.69022225     0.07000
C1715       C  0.71483982  0.22835491  0.52050771     0.04000
C1716       C  0.71455699  0.22896492  0.55209445    -0.12100
C1717       C  0.74034007  0.24959970  0.56851519     0.01500
C1718       C  0.76630795  0.26973037  0.55210128    -0.10700
C1719       C  0.76633644  0.27020872  0.52062757     0.04000
C1720       C  0.74068449  0.24922108  0.50506287    -0.10100
H1721       H  0.69389135  0.21348796  0.56340765     0.09600
H1722       H  0.78679851  0.28546866  0.56339594     0.07100
H1723       H  0.74073055  0.24863832  0.98085770     0.07000
C1724       C  0.74304475  0.46885821  0.64990330     0.04000
C1725       C  0.74153883  0.46544103  0.61849207    -0.12100
C1726       C  0.71587048  0.46048616  0.60204458     0.01500
C1727       C  0.69178695  0.45961187  0.61832575    -0.10700
C1728       C  0.69393273  0.46505273  0.64939088     0.04000
C1729       C  0.71938658  0.46927047  0.66501546    -0.10100
H1730       H  0.76090445  0.46711901  0.60730984     0.09600
H1731       H  0.67123655  0.45503295  0.60723476     0.07100
H1732       H  0.72029628  0.47207430  0.68918928     0.07000
C1733       C  0.73198342  0.44515100  0.52156623     0.04000
C1734       C  0.73357573  0.44885172  0.55288374    -0.12100
C1735       C  0.71411912  0.45618104  0.56831329     0.01500
C1736       C  0.69350997  0.46037112  0.55090772    -0.10700
C1737       C  0.69007047  0.45454536  0.51975619     0.04000
C1738       C  0.70881727  0.44572447  0.50570148    -0.07500
H1739       H  0.75038636  0.44613525  0.56461919     0.09600
H1740       H  0.68068751  0.46921567  0.56125426     0.07100
H1741       H  0.70757502  0.44228548  0.98180981     0.07000
C1742       C  0.99717170  0.24240791  0.65058701     0.04000
C1743       C  0.99624335  0.21793742  0.66514614    -0.12100
C1744       C  0.99736758  0.19542714  0.64883748     0.01500
C1745       C  0.00029756  0.19787809  0.61748542    -0.10700
C1746       C  0.99975491  0.22149933  0.60170172     0.04000
C1747       C  0.99790015  0.24357355  0.61899953    -0.10100
H1748       H  0.99452734  0.21630535  0.68942722     0.09600
H1749       H  0.00258886  0.18078304  0.60587830     0.07100
H1750       H  0.99748917  0.26216616  0.60848952     0.07000
C1751       C  0.01097351  0.25124832  0.52047375     0.04000
C1752       C  0.00824569  0.24964201  0.55189965    -0.12100
C1753       C  0.00177034  0.22323563  0.56770163     0.01500
C1754       C  0.99718133  0.19824894  0.55044632    -0.10700
C1755       C  0.00258724  0.20037308  0.51928300     0.04000
C1756       C  0.00956217  0.22719763  0.50464719    -0.10100
H1757       H  0.01136659  0.26937385  0.56338538     0.09600
H1758       H  0.98857047  0.17657093  0.56087679     0.07100
H1759       H  0.01285055  0.22878844  0.98063438     0.07000
O1760       O  0.51923294  0.41569993  0.86713948    -0.87300
C1761       C  0.56760668  0.06815189  0.79079784     1.12800
O1762       O  0.98931791  0.44709568  0.83503320    -1.35100
O1763       O  0.57598266  0.05049323  0.86927505    -0.88800
O1764       O  0.96915679  0.38761825  0.86890412    -0.89400
O1765       O  0.95592907  0.44325778  0.89819320    -0.78300
O1766       O  0.54793418  0.48187155  0.86424019    -1.00300
C1767       C  0.98277804  0.02877824  0.89145471     1.22800
O1768       O  0.95335501  0.47333858  0.83545135    -1.35200
Mn1769     Mn  0.98657941  0.47733622  0.80294544     1.82100
O1770       O  0.98482239  0.00653490  0.89922331    -0.77300
O1771       O  0.54756381  0.07181178  0.86746053    -0.86700
C1772       C  0.97986995  0.02838269  0.78117496     1.13900
C1773       C  0.56951484  0.07002495  0.87809014     1.08600
O1774       O  0.95709671  0.44550513  0.77184942    -0.78300
O1775       O  0.51598099  0.01007325  0.83588396    -1.32000
O1776       O  0.93068612  0.41517660  0.80623142    -0.97500
C1777       C  0.89308096  0.46534301  0.87835587     1.07300
Mn1778     Mn  0.51380902  0.05028352  0.83539226     1.48600
O1779       O  0.89139151  0.44182412  0.86750482    -0.86700
Mn1780     Mn  0.95169149  0.40296538  0.83494806     1.49600
O1781       O  0.51929451  0.41695496  0.80039429    -0.90600
C1782       C  0.54199648  0.47982401  0.89097070     1.20500
C1783       C  0.99482909  0.39441698  0.79140643     1.12600
Mn1784     Mn  0.98591688  0.47595328  0.86802502     1.81000
O1785       O  0.97924140  0.03217348  0.80815824    -0.95700
Mn1786     Mn  0.53160679  0.44894400  0.83482744     1.49300
C1787       C  0.99524161  0.39405536  0.87793324     1.09100
Mn1788     Mn  0.94653089  0.01063294  0.83740214     1.49900
C1789       C  0.89602094  0.46808700  0.79045460     1.12000
O1790       O  0.93008222  0.41478476  0.86267774    -1.01500
O1791       O  0.54539172  0.07016060  0.80042379    -0.91200
C1792       C  0.93372268  0.41917663  0.88961259     1.23300
O1793       O  0.98088107  0.03279636  0.86472614    -1.01900
O1794       O  0.57493628  0.05008484  0.80205658    -0.89300
O1795       O  0.91327599  0.99302242  0.80437347    -0.88900
O1796       O  0.96931464  0.38764693  0.80208291    -0.88900
Mn1797     Mn  0.56035457  0.01735640  0.83573057     1.47900
O1798       O  0.98280682  0.00682869  0.77281461    -0.77400
C1799       C  0.93486873  0.42090895  0.77946822     1.16300
O1800       O  0.51749561  0.47738730  0.89870548    -0.76100
O1801       O  0.51944288  0.48064673  0.77229427    -0.75700
Mn1802     Mn  0.91278235  0.43089742  0.83424295     1.51100
O1803       O  0.91402983  0.99210726  0.87208859    -0.88100
O1804       O  0.54804795  0.48318939  0.80769435    -0.95600
O1805       O  0.89312972  0.44357127  0.80015646    -0.90600
C1806       C  0.54352975  0.48235904  0.78073339     1.14100
C1807       C  0.96724367  0.08487286  0.92923903    -0.27300
C1808       C  0.99090438  0.09857791  0.95016155     0.06300
C1809       C  0.51079126  0.08710387  0.95338611     0.25900
C1810       C  0.50677423  0.06291924  0.93560162    -0.11800
C1811       C  0.98396169  0.05072638  0.91338865    -0.25700
C1812       C  0.96456054  0.06220203  0.91028708     0.36700
C1813       C  0.99497729  0.12511441  0.96776869     0.06300
F1814       F  0.53487775  0.10008103  0.97208115    -0.19500
H1815       H  0.52256210  0.05497736  0.93762493     0.16100
F1816       F  0.94319148  0.05183560  0.88853920    -0.23200
H1817       H  0.95085009  0.09198024  0.92702480     0.17900
C1818       C  0.98846972  0.14616211  0.95478393     0.25900
C1819       C  0.98980476  0.16940897  0.97191009    -0.11800
C1820       C  0.00009382  0.17441618  0.50178982    -0.25800
C1821       C  0.00806844  0.15428148  0.51441445     0.36800
C1822       C  0.00473994  0.12947045  0.99785062    -0.27400
F1823       F  0.98143059  0.14492086  0.92521810    -0.19600
H1824       H  0.98297552  0.18388691  0.96130756     0.16100
F1825       F  0.02004600  0.15867328  0.54240054    -0.23300
H1826       H  0.00927709  0.11380925  0.50905895     0.18000
C1827       C  0.53160930  0.31093867  0.96096768    -0.27300
C1828       C  0.00950208  0.31884414  0.96562691     0.06300
C1829       C  0.98976977  0.30621374  0.99016418     0.25900
C1830       C  0.99151241  0.28537696  0.00885941    -0.11800
C1831       C  0.01288754  0.27666237  0.00350284    -0.25700
C1832       C  0.53339138  0.29015784  0.97976799     0.36700
C1833       C  0.00592084  0.33874680  0.94393649     0.06300
F1834       F  0.96847072  0.31367630  0.99583249    -0.19500
H1835       H  0.97442521  0.27438884  0.52667572     0.16100
F1836       F  0.55488615  0.28288954  0.97442671    -0.23200
H1837       H  0.54693602  0.32008717  0.94213599     0.17900
C1838       C  0.53084846  0.36533517  0.93346229     0.25900
C1839       C  0.52707867  0.38317810  0.91230057    -0.11800
C1840       C  0.99834324  0.37525062  0.90137883    -0.25800
C1841       C  0.97336254  0.34853909  0.91182375     0.36800
C1842       C  0.97725076  0.33047594  0.93264087    -0.27400
F1843       F  0.55891179  0.37440447  0.94399332    -0.19600
H1844       H  0.54688508  0.40336516  0.90456379     0.16100
F1845       F  0.94522248  0.33935356  0.90149025    -0.23300
H1846       H  0.95775242  0.30960270  0.93956031     0.18000
C1847       C  0.47668737  0.09522117  0.74990125    -0.27300
C1848       C  0.98367496  0.09483783  0.71933233     0.06300
C1849       C  0.98803997  0.07155297  0.70895306     0.25900
C1850       C  0.98602197  0.04950984  0.72890010    -0.11800
C1851       C  0.97968019  0.05027588  0.75953496    -0.25700
C1852       C  0.47429063  0.07315281  0.76971116     0.36700
C1853       C  0.98616059  0.11896512  0.69901188     0.06300
F1854       F  0.99390108  0.06988032  0.67952014    -0.19500
H1855       H  0.98985659  0.03207558  0.72042953     0.16100
F1856       F  0.46700156  0.07443398  0.79876495    -0.23200
H1857       H  0.47329330  0.11287369  0.75856984     0.17900
C1858       C  0.96457968  0.12803643  0.70027426     0.25900
C1859       C  0.96838433  0.15257539  0.68355051    -0.11800
C1860       C  0.99349854  0.16849484  0.66487169    -0.25800
C1861       C  0.01462112  0.15893399  0.66259418     0.36800
C1862       C  0.01100873  0.13444409  0.67967611    -0.27400
F1863       F  0.93969570  0.11316850  0.71773171    -0.19600
H1864       H  0.95161479  0.15929066  0.68525440     0.16100
F1865       F  0.03935856  0.17405351  0.64498913    -0.23300
H1866       H  0.02817781  0.12824273  0.67857513     0.18000
C1867       C  0.97978831  0.30065596  0.68169853    -0.27300
C1868       C  0.99970457  0.31202969  0.70621803     0.06300
C1869       C  0.51887139  0.30084340  0.71177334     0.25900
C1870       C  0.51824467  0.27866977  0.69332872    -0.11800
C1871       C  0.99828715  0.26702257  0.66889297    -0.25700
C1872       C  0.97901630  0.27837527  0.66317867     0.36700
C1873       C  0.99879155  0.33417117  0.72683007     0.06300
F1874       F  0.53731253  0.31015298  0.73608726    -0.19500
H1875       H  0.53324304  0.27026669  0.69838208     0.16100
F1876       F  0.95860018  0.26712017  0.64053381    -0.23200
H1877       H  0.96453037  0.30884455  0.67708471     0.17900
C1878       C  0.02516575  0.36046322  0.73567597     0.25900
C1879       C  0.02370106  0.38032329  0.75605788    -0.11800
C1880       C  0.99595032  0.37445164  0.76801100    -0.25800
C1881       C  0.96949982  0.34837899  0.75849941     0.36800
C1882       C  0.97105685  0.32862359  0.73820637    -0.27400
F1883       F  0.55226162  0.36751803  0.72373206    -0.19600
H1884       H  0.54438759  0.40053182  0.76212340     0.16100
F1885       F  0.94201785  0.34142460  0.76913489    -0.23300
H1886       H  0.95046727  0.30848572  0.73183556     0.18000
C1887       C  0.83227040  0.43083414  0.93865721    -0.27300
C1888       C  0.82686014  0.45434332  0.94472628     0.06300
C1889       C  0.85324750  0.98518651  0.94004913     0.25900
C1890       C  0.87475637  0.98803889  0.91893253    -0.11800
C1891       C  0.87113167  0.46180768  0.90214076    -0.25700
C1892       C  0.85400920  0.43437689  0.91760144     0.36700
C1893       C  0.80299566  0.45002880  0.96640624     0.06300
F1894       F  0.85434068  0.01038335  0.95053126    -0.19500
H1895       H  0.89173786  0.01031415  0.91191732     0.16100
F1896       F  0.85808629  0.41080744  0.91241753    -0.23200
H1897       H  0.81957988  0.40959048  0.95027395     0.17900
C1898       C  0.77338255  0.42567853  0.96367700     0.25900
C1899       C  0.75057453  0.42345599  0.98258512    -0.11800
C1900       C  0.75696402  0.44512627  0.00484686    -0.25800
C1901       C  0.78646844  0.46859289  0.50800657     0.36800
C1902       C  0.80950366  0.47107470  0.98935066    -0.27400
F1903       F  0.76615991  0.40491389  0.94173077    -0.19600
H1904       H  0.72772156  0.40525577  0.97932605     0.16100
F1905       F  0.79331058  0.49035973  0.52874920    -0.23300
H1906       H  0.83174793  0.49008932  0.49145500     0.18000
C1907       C  0.57302773  0.45379800  0.95386363    -0.27300
C1908       C  0.60426557  0.47345255  0.95073811     0.06300
C1909       C  0.61615283  0.00156864  0.92975189     0.25900
C1910       C  0.59540263  0.00232503  0.91006599    -0.11800
C1911       C  0.56283592  0.47872516  0.91300303    -0.25700
C1912       C  0.55246844  0.45692239  0.93577285     0.36700
C1913       C  0.62625733  0.46900890  0.96881660     0.06300
F1914       F  0.64529246  0.02386685  0.92780794    -0.19500
H1915       H  0.60333479  0.01941066  0.89281933     0.16100
F1916       F  0.52259074  0.43737335  0.93920690    -0.23200
H1917       H  0.56439157  0.43533914  0.96963126     0.17900
C1918       C  0.62090253  0.45988699  0.99913764     0.25900
C1919       C  0.64080780  0.45393237  0.51509992    -0.11800
C1920       C  0.66782736  0.45892225  0.50185743    -0.25800
C1921       C  0.67431999  0.47039709  0.97188497     0.36800
C1922       C  0.65300497  0.47362241  0.95546181    -0.27400
F1923       F  0.59591084  0.45607063  0.51373848    -0.19600
H1924       H  0.63535926  0.44616398  0.53807286     0.16100
F1925       F  0.70649522  0.99084994  0.96310684    -0.23300
H1926       H  0.66290714  0.98989667  0.93503885     0.18000
C1927       C  0.83090461  0.44160624  0.73531616    -0.27300
C1928       C  0.83702673  0.46880742  0.72197857     0.06300
C1929       C  0.86408665  0.49507002  0.72915555     0.25900
C1930       C  0.88359634  0.49438157  0.75058696    -0.11800
C1931       C  0.87673651  0.46747735  0.76522891    -0.25700
C1932       C  0.85059826  0.44080167  0.75653429     0.36700
C1933       C  0.81435227  0.46995850  0.70214319     0.06300
F1934       F  0.87408595  0.01744312  0.71184738    -0.19500
H1935       H  0.90570495  0.01197502  0.75387526     0.16100
F1936       F  0.84326096  0.41412341  0.76940469    -0.23200
H1937       H  0.81022495  0.42105614  0.73015599     0.17900
C1938       C  0.80069446  0.44945391  0.67845278     0.25900
C1939       C  0.77818063  0.44982671  0.66112003    -0.11800
C1940       C  0.76866027  0.47048539  0.66710917    -0.25800
C1941       C  0.78279017  0.49141764  0.69042955     0.36800
C1942       C  0.80533007  0.49106147  0.70771505    -0.27400
F1943       F  0.80915687  0.42909251  0.67200130    -0.19600
H1944       H  0.76759314  0.43337436  0.64342297     0.16100
F1945       F  0.77496126  0.51233739  0.69645507    -0.23300
H1946       H  0.81532703  0.50694285  0.72597385     0.18000
C1947       C  0.61305778  0.48381517  0.75000387    -0.27300
C1948       C  0.60499744  0.47503208  0.72004770     0.06300
C1949       C  0.57648490  0.46871744  0.70992567     0.25900
C1950       C  0.55678376  0.47185415  0.72940682    -0.11800
C1951       C  0.56497840  0.48083905  0.75942292    -0.25700
C1952       C  0.59337566  0.48653876  0.76953388     0.36700
C1953       C  0.62683747  0.47290641  0.69984422     0.06300
F1954       F  0.56795508  0.95685205  0.68339687    -0.19500
H1955       H  0.53413797  0.96366843  0.72221325     0.16100
F1956       F  0.60228123  0.49471909  0.79839768    -0.23200
H1957       H  0.63469400  0.48832665  0.75842975     0.17900
C1958       C  0.65640322  0.49724670  0.69723082     0.25900
C1959       C  0.67782639  0.49449757  0.68048246    -0.11800
C1960       C  0.67021261  0.46760614  0.66570361    -0.25800
C1961       C  0.64046664  0.44347930  0.66748449     0.36800
C1962       C  0.61897822  0.44612938  0.68452063    -0.27400
F1963       F  0.66456275  0.52376030  0.71089785    -0.19600
H1964       H  0.70054389  0.51342667  0.67909145     0.16100
F1965       F  0.63257068  0.41703596  0.65382499    -0.23300
H1966       H  0.59644673  0.42699784  0.68649789     0.18000
C1967       C  0.84601081  0.32221021  0.99406790    -0.27300
C1968       C  0.84112365  0.33656567  0.96981331     0.06300
C1969       C  0.81174615  0.32984590  0.96301035     0.25900
C1970       C  0.78755304  0.30862292  0.97994612    -0.11800
C1971       C  0.79279369  0.29320512  0.50372681    -0.25700
C1972       C  0.82225944  0.29992399  0.51068992     0.36700
C1973       C  0.86628613  0.35698688  0.95025769     0.06300
F1974       F  0.80650257  0.34380981  0.93990796    -0.19500
H1975       H  0.76509809  0.30390923  0.97436692     0.16100
F1976       F  0.82739487  0.28503592  0.53290721    -0.23200
H1977       H  0.86907735  0.32563661  0.49888411     0.17900
C1978       C  0.89059455  0.38370899  0.96132709     0.25900
C1979       C  0.91310896  0.40363573  0.94170830    -0.11800
C1980       C  0.91169629  0.39698215  0.91090749    -0.25800
C1981       C  0.88788936  0.36944405  0.90029336     0.36800
C1982       C  0.86541671  0.34983955  0.91982205    -0.27400
F1983       F  0.89187063  0.39103635  0.99078009    -0.19600
H1984       H  0.93116685  0.42459228  0.95045831     0.16100
F1985       F  0.88585852  0.36157610  0.87091463    -0.23300
H1986       H  0.84701204  0.32906754  0.91110342     0.18000
C1987       C  0.63225168  0.11487527  0.93437186    -0.27300
C1988       C  0.62489655  0.13615571  0.94433342     0.06300
C1989       C  0.59930286  0.13554513  0.93247261     0.25900
C1990       C  0.58129211  0.11375876  0.91138920    -0.11800
C1991       C  0.58851913  0.09227099  0.90136487    -0.25700
C1992       C  0.61450748  0.09332213  0.91299786     0.36700
C1993       C  0.64497613  0.15969645  0.96589859     0.06300
F1994       F  0.59154297  0.15585062  0.94142599    -0.19500
H1995       H  0.56171507  0.11393643  0.90275609     0.16100
F1996       F  0.62346363  0.07422112  0.90321656    -0.23200
H1997       H  0.65234259  0.11545509  0.94260047     0.17900
C1998       C  0.65441004  0.15215086  0.99251786     0.25900
C1999       C  0.67585892  0.17463871  0.01107768    -0.11800
C2000       C  0.68839747  0.20500938  0.00336224    -0.25800
C2001       C  0.67787118  0.21255446  0.97746394     0.36800
C2002       C  0.65639804  0.19007303  0.95896066    -0.27400
F2003       F  0.64324642  0.12300342  0.00029849    -0.19600
H2004       H  0.68363759  0.16827122  0.03083276     0.16100
F2005       F  0.68877361  0.24167669  0.96972204    -0.23300
H2006       H  0.64953335  0.19642325  0.93855347     0.18000
C2007       C  0.80938251  0.33722498  0.70669517    -0.27300
C2008       C  0.83876392  0.34500893  0.69856019     0.06300
C2009       C  0.84340537  0.33203885  0.67297886     0.25900
C2010       C  0.81881485  0.31061854  0.65644792    -0.11800
C2011       C  0.78925086  0.30177632  0.66525322    -0.25700
C2012       C  0.78475161  0.31588771  0.69008251     0.36700
C2013       C  0.86420432  0.36445026  0.71837287     0.06300
F2014       F  0.87162224  0.33895507  0.66496803    -0.19500
H2015       H  0.82280874  0.29996823  0.63747843     0.16100
F2016       F  0.75657437  0.30886537  0.69835769    -0.23200
H2017       H  0.80555471  0.34725336  0.72630762     0.17900
C2018       C  0.88514023  0.39411778  0.71034506     0.25900
C2019       C  0.90894435  0.41213707  0.72974568    -0.11800
C2020       C  0.91212159  0.40076665  0.75738180    -0.25800
C2021       C  0.89141831  0.37071867  0.76490896     0.36800
C2022       C  0.86767455  0.35285666  0.74556433    -0.27400
F2023       F  0.88204254  0.40583580  0.68419423    -0.19600
H2024       H  0.92428356  0.43526805  0.72361543     0.16100
F2025       F  0.89397424  0.35860366  0.79105450    -0.23300
H2026       H  0.85185963  0.32987194  0.75181555     0.18000
C2027       C  0.62944115  0.10604432  0.73211895    -0.27300
C2028       C  0.62709372  0.13105892  0.72411808     0.06300
C2029       C  0.60325654  0.13377527  0.73601114     0.25900
C2030       C  0.58320996  0.11261631  0.75671070    -0.11800
C2031       C  0.58657442  0.08839863  0.76606194    -0.25700
C2032       C  0.60955235  0.08496123  0.75277483     0.36700
C2033       C  0.65055779  0.15486625  0.70474764     0.06300
F2034       F  0.60031000  0.15773399  0.72891581    -0.19500
H2035       H  0.56571926  0.11586447  0.76624538     0.16100
F2036       F  0.61338422  0.06159040  0.76008956    -0.23200
H2037       H  0.64718830  0.10311342  0.72272181     0.17900
C2038       C  0.68123574  0.16754338  0.71195442     0.25900
C2039       C  0.70332204  0.19033510  0.69414354    -0.11800
C2040       C  0.69539654  0.20105768  0.66877068    -0.25800
C2041       C  0.66471443  0.18820282  0.66138126     0.36800
C2042       C  0.64257573  0.16536105  0.67924376    -0.27400
F2043       F  0.68984927  0.15856761  0.73683434    -0.19600
H2044       H  0.72673288  0.19975953  0.70031346     0.16100
F2045       F  0.65604502  0.19847942  0.63755339    -0.23300
H2046       H  0.61913091  0.15589208  0.67319402     0.18000
C2047       C  0.71699039  0.72505710  0.15134811     0.04000
C2048       C  0.71663802  0.72542525  0.11976499    -0.12100
C2049       C  0.73776774  0.75086858  0.10332895     0.01500
C2050       C  0.75923261  0.77604826  0.11977327    -0.10700
C2051       C  0.76126821  0.77521384  0.15117761     0.04000
C2052       C  0.73986517  0.74969572  0.16678969    -0.10100
H2053       H  0.70022984  0.70526056  0.10842675     0.09600
H2054       H  0.77484000  0.79665815  0.10853288     0.07100
H2055       H  0.74112764  0.74882618  0.19102903     0.07000
C2056       C  0.71425268  0.72883757  0.02092587     0.04000
C2057       C  0.71309259  0.72995865  0.05247135    -0.12100
C2058       C  0.73833127  0.75082772  0.06939716     0.01500
C2059       C  0.76457571  0.77126353  0.05346873    -0.10700
C2060       C  0.76543667  0.77149450  0.02198748     0.04000
C2061       C  0.74043123  0.74995997  0.00595916    -0.10100
H2062       H  0.69219686  0.71447755  0.06341559     0.09600
H2063       H  0.78475224  0.78724757  0.06511086     0.07100
H2064       H  0.74195322  0.74907199  0.48224106     0.07000
C2065       C  0.74324023  0.96861972  0.15197342     0.04000
C2066       C  0.74139730  0.96508291  0.12064720    -0.12100
C2067       C  0.71596379  0.96111594  0.10446256     0.01500
C2068       C  0.69214262  0.96039506  0.12107776    -0.10700
C2069       C  0.69463243  0.96567525  0.15220098     0.04000
C2070       C  0.72020356  0.96975126  0.16746247    -0.10100
H2071       H  0.76047786  0.96623274  0.10933133     0.09600
H2072       H  0.67169516  0.95635133  0.11013043     0.07100
H2073       H  0.72179280  0.97305816  0.19159334     0.07000
C2074       C  0.73433905  0.95114197  0.02303498     0.04000
C2075       C  0.73390226  0.95134093  0.05459112    -0.12100
C2076       C  0.71471823  0.95866410  0.07057423     0.01500
C2077       C  0.69537509  0.96515385  0.05367452    -0.10700
C2078       C  0.69361329  0.96256481  0.02210601     0.04000
C2079       C  0.71288563  0.95488186  0.00726062    -0.07500
H2080       H  0.74884814  0.94580875  0.06624286     0.09600
H2081       H  0.68220459  0.97320250  0.06479233     0.07100
H2082       H  0.71178256  0.95155803  0.48289859     0.07000
C2083       C  0.00485177  0.74882075  0.15044452     0.04000
C2084       C  0.00206327  0.72416780  0.16646246    -0.12100
C2085       C  0.99995628  0.69936023  0.15141122     0.01500
C2086       C  0.00089226  0.69947727  0.11980353    -0.10700
C2087       C  0.00288886  0.72363371  0.10265299     0.04000
C2088       C  0.00518782  0.74833358  0.11887032    -0.10100
H2089       H  0.00121263  0.72410882  0.19078810     0.09600
H2090       H  0.99973844  0.68010425  0.10910976     0.07100
H2091       H  0.00725938  0.76765715  0.10763031     0.07000
C2092       C  0.00858191  0.74853783  0.01975876     0.04000
C2093       C  0.00832389  0.74873254  0.05129855    -0.12100
C2094       C  0.00274774  0.72321031  0.06838978     0.01500
C2095       C  0.99663804  0.69712321  0.05212278    -0.10700
C2096       C  0.99910662  0.69714537  0.02055021     0.04000
C2097       C  0.00513538  0.72319922  0.00477385    -0.10100
H2098       H  0.01270128  0.76927487  0.06170030     0.09600
H2099       H  0.98897023  0.67607489  0.06368693     0.07100
H2100       H  0.00689642  0.72449386  0.47999490     0.07000
O2101       O  0.52057393  0.91737877  0.36703352    -0.87300
C2102       C  0.56831222  0.56730643  0.29252895     1.12800
O2103       O  0.98972611  0.94805303  0.33532667    -1.35100
O2104       O  0.57501395  0.54867481  0.37141050    -0.88800
O2105       O  0.97072813  0.88814182  0.36776819    -0.89400
O2106       O  0.95702726  0.94399579  0.39898015    -0.78300
O2107       O  0.54893352  0.98393083  0.36361308    -1.00300
C2108       C  0.98097621  0.52734577  0.39164647     1.22800
O2109       O  0.95337319  0.97375667  0.33630621    -1.35200
Mn2110     Mn  0.98610919  0.97764962  0.30323532     1.82100
O2111       O  0.98366591  0.50540244  0.39903500    -0.77300
O2112       O  0.54651047  0.56993800  0.36997622    -0.86700
C2113       C  0.98132440  0.52939719  0.28146348     1.13900
C2114       C  0.56805296  0.56766010  0.38101900     1.08600
O2115       O  0.95628175  0.94545225  0.27244092    -0.78300
O2116       O  0.51592470  0.50936962  0.33625064    -1.32000
O2117       O  0.93053791  0.91573494  0.30733751    -0.97500
C2118       C  0.89476037  0.96587944  0.38169762     1.07300
Mn2119     Mn  0.51388831  0.54957373  0.33653419     1.48600
O2120       O  0.89258819  0.94229600  0.37035407    -0.86700
Mn2121     Mn  0.95247344  0.90368455  0.33483871     1.49600
O2122       O  0.51987606  0.91914722  0.29971961    -0.90600
C2123       C  0.54331062  0.98206684  0.39042675     1.20500
C2124       C  0.99588413  0.89745296  0.28934288     1.12600
Mn2125     Mn  0.98647915  0.97699484  0.36831559     1.81000
O2126       O  0.98035386  0.53225014  0.30850374    -0.95700
Mn2127     Mn  0.53223955  0.95065681  0.33447320     1.49300
C2128       C  0.99676848  0.89520178  0.37749102     1.09100
Mn2129     Mn  0.94657409  0.51065730  0.33617544     1.49900
C2130       C  0.89460892  0.96763764  0.29352186     1.12000
O2131       O  0.93103617  0.91494114  0.36380356    -1.01500
O2132       O  0.54641756  0.56973076  0.30241840    -0.91200
C2133       C  0.93499250  0.91951527  0.39074119     1.23300
O2134       O  0.97993574  0.53218511  0.36495008    -1.01900
O2135       O  0.57550347  0.54913349  0.30366871    -0.89300
O2136       O  0.91459929  0.49366289  0.30174392    -0.88900
O2137       O  0.97007476  0.88966859  0.30013152    -0.88900
Mn2138     Mn  0.56016288  0.51617449  0.33687314     1.47900
O2139       O  0.98419209  0.50794065  0.27246994    -0.77400
C2140       C  0.93404664  0.92107024  0.28048563     1.16300
O2141       O  0.51869436  0.97916969  0.39842840    -0.76100
O2142       O  0.51862659  0.98122570  0.27194821    -0.75700
Mn2143     Mn  0.91301796  0.93111313  0.33618120     1.51100
O2144       O  0.91248604  0.49187115  0.36910180    -0.88100
O2145       O  0.54768101  0.98470406  0.30720252    -0.95600
O2146       O  0.89224827  0.94331318  0.30303251    -0.90600
C2147       C  0.54311258  0.98384335  0.28030489     1.14100
C2148       C  0.96161281  0.57976932  0.43172716    -0.27300
C2149       C  0.98565643  0.59443420  0.45206246     0.06300
C2150       C  0.50662625  0.58442221  0.45419842     0.25900
C2151       C  0.50364849  0.56095647  0.43593187    -0.11800
C2152       C  0.98093216  0.54824466  0.41416500    -0.25700
C2153       C  0.95994670  0.55789942  0.41221440     0.36700
C2154       C  0.98910578  0.62069997  0.46962693     0.06300
F2155       F  0.53091872  0.59823830  0.47255429    -0.19500
H2156       H  0.52032626  0.55410630  0.43741944     0.16100
F2157       F  0.93812691  0.54674182  0.39097342    -0.23200
H2158       H  0.94432779  0.58576523  0.43023066     0.17900
C2159       C  0.98208493  0.64133437  0.45659838     0.25900
C2160       C  0.98406478  0.66507960  0.47338756    -0.11800
C2161       C  0.99489076  0.67000632  0.00377053    -0.25800
C2162       C  0.00322278  0.65002864  0.01621563     0.36800
C2163       C  0.99949265  0.62557722  0.49946518    -0.27400
F2164       F  0.97417258  0.63932164  0.42721480    -0.19600
H2165       H  0.97695794  0.67929778  0.46270558     0.16100
F2166       F  0.01642763  0.65502418  0.04362988    -0.23300
H2167       H  0.00457829  0.60958888  0.01080281     0.18000
C2168       C  0.52894317  0.80824935  0.45861127    -0.27300
C2169       C  0.00954661  0.81913529  0.46567229     0.06300
C2170       C  0.99170516  0.80843113  0.49172290     0.25900
C2171       C  0.99251578  0.78655340  0.50966978    -0.11800
C2172       C  0.01108949  0.77485486  0.50207478    -0.25700
C2173       C  0.52978462  0.78648499  0.47671494     0.36700
C2174       C  0.00642358  0.83980784  0.44456369     0.06300
F2175       F  0.97323270  0.81890647  0.49965931    -0.19500
H2176       H  0.97776975  0.77778579  0.02931196     0.16100
F2177       F  0.54900857  0.77675441  0.46940157    -0.23200
H2178       H  0.54298754  0.81607483  0.43875071     0.17900
C2179       C  0.53154561  0.86528458  0.43271842     0.25900
C2180       C  0.52817931  0.88335439  0.41141685    -0.11800
C2181       C  0.99966762  0.87644989  0.40130991    -0.25800
C2182       C  0.97427986  0.85095466  0.41329651     0.36800
C2183       C  0.97774404  0.83293901  0.43457807    -0.27400
F2184       F  0.55959783  0.87320136  0.44240607    -0.19600
H2185       H  0.54822109  0.90294391  0.40306994     0.16100
F2186       F  0.94604850  0.84292905  0.40415089    -0.23300
H2187       H  0.95788665  0.81302892  0.44272278     0.18000
C2188       C  0.47988053  0.59822962  0.25389423    -0.27300
C2189       C  0.98396125  0.59761384  0.22270902     0.06300
C2190       C  0.98568293  0.57323014  0.21071142     0.25900
C2191       C  0.98428231  0.55074738  0.22965249    -0.11800
C2192       C  0.98069806  0.55184170  0.26084762    -0.25700
C2193       C  0.47781904  0.57559242  0.27266944     0.36700
C2194       C  0.98714967  0.62281990  0.20341325     0.06300
F2195       F  0.98836170  0.57089514  0.18065010    -0.19500
H2196       H  0.98624734  0.53261141  0.21991214     0.16100
F2197       F  0.47361557  0.57755328  0.30251362    -0.23200
H2198       H  0.47909904  0.61687738  0.26399705     0.17900
C2199       C  0.96853319  0.63526706  0.20772398     0.25900
C2200       C  0.97290847  0.66001944  0.19079120    -0.11800
C2201       C  0.99562498  0.67283277  0.16891860    -0.25800
C2202       C  0.01402536  0.66028779  0.16428075     0.36800
C2203       C  0.00990454  0.63569960  0.18147170    -0.27400
F2204       F  0.94574617  0.62329106  0.22801584    -0.19600
H2205       H  0.95823596  0.66906282  0.19457076     0.16100
F2206       F  0.03672826  0.67249680  0.14392433    -0.23300
H2207       H  0.02510302  0.62722793  0.17812672     0.18000
C2208       C  0.98837712  0.80964776  0.17523147    -0.27300
C2209       C  0.00669912  0.82128970  0.20077547     0.06300
C2210       C  0.52547591  0.80981151  0.20885916     0.25900
C2211       C  0.52536926  0.78684682  0.19203496    -0.11800
C2212       C  0.00647663  0.77478448  0.16683328    -0.25700
C2213       C  0.98828782  0.78676023  0.15834060     0.36700
C2214       C  0.00391680  0.84301889  0.22047629     0.06300
F2215       F  0.54289377  0.81988946  0.23386975    -0.19500
H2216       H  0.53972158  0.77821065  0.19898505     0.16100
F2217       F  0.96922999  0.77533704  0.13461498    -0.23200
H2218       H  0.97357967  0.81789645  0.16871522     0.17900
C2219       C  0.02934481  0.86964603  0.23021045     0.25900
C2220       C  0.02644766  0.88784006  0.25168401    -0.11800
C2221       C  0.99811984  0.87997468  0.26381820    -0.25800
C2222       C  0.97243383  0.85446827  0.25221769     0.36800
C2223       C  0.97544459  0.83622567  0.23094747    -0.27400
F2224       F  0.55683907  0.87772415  0.21911996    -0.19600
H2225       H  0.54639661  0.90767775  0.25912436     0.16100
F2226       F  0.94438842  0.84647884  0.26195254    -0.23300
H2227       H  0.95547608  0.81605031  0.22344954     0.18000
C2228       C  0.83037148  0.93078233  0.43849869    -0.27300
C2229       C  0.82989542  0.95600011  0.44945159     0.06300
C2230       C  0.84383972  0.48207270  0.42893085     0.25900
C2231       C  0.86591911  0.48576428  0.40818264    -0.11800
C2232       C  0.87359477  0.96242842  0.40646697    -0.25700
C2233       C  0.85187071  0.93380845  0.41736198     0.36700
C2234       C  0.80528583  0.95225728  0.46986507     0.06300
F2235       F  0.83850061  0.50499002  0.43326098    -0.19500
H2236       H  0.87822831  0.50690449  0.39634652     0.16100
F2237       F  0.85074449  0.90850870  0.40718760    -0.23200
H2238       H  0.81373044  0.90854399  0.44607513     0.17900
C2239       C  0.77490645  0.93305183  0.46211792     0.25900
C2240       C  0.75185843  0.93138638  0.48020561    -0.11800
C2241       C  0.75850132  0.94882993  0.50638711    -0.25800
C2242       C  0.78908145  0.96766029  0.01461800     0.36800
C2243       C  0.81195393  0.96884350  0.49659644    -0.27400
F2244       F  0.76747077  0.91705416  0.43620285    -0.19600
H2245       H  0.72873085  0.91696930  0.47328503     0.16100
F2246       F  0.79678683  0.98511105  0.03955630    -0.23300
H2247       H  0.83526277  0.98365511  0.00324024     0.18000
C2248       C  0.57570913  0.95748717  0.45334247    -0.27300
C2249       C  0.60680891  0.97809282  0.45058753     0.06300
C2250       C  0.61420618  0.49585442  0.42895876     0.25900
C2251       C  0.59390269  0.49800331  0.40977753    -0.11800
C2252       C  0.56457192  0.98157927  0.41235004    -0.25700
C2253       C  0.55474668  0.95971137  0.43502121     0.36700
C2254       C  0.62926257  0.97498366  0.46947804     0.06300
F2255       F  0.64387334  0.51651622  0.42620316    -0.19500
H2256       H  0.60246021  0.51477438  0.39217772     0.16100
F2257       F  0.52502758  0.93944987  0.43834018    -0.23200
H2258       H  0.56748864  0.93905572  0.46910559     0.17900
C2259       C  0.62342821  0.96544745  0.49970283     0.25900
C2260       C  0.64380436  0.96085705  0.01675525    -0.11800
C2261       C  0.67196434  0.96816410  0.00456584    -0.25800
C2262       C  0.67856526  0.97920842  0.47423671     0.36800
C2263       C  0.65701311  0.98140123  0.45710147    -0.27400
F2264       F  0.59715460  0.95950076  0.01382639    -0.19600
H2265       H  0.63756244  0.95160297  0.03916784     0.16100
F2266       F  0.69983668  0.47631805  0.45793391    -0.23300
H2267       H  0.65678230  0.47809614  0.43176025     0.18000
C2268       C  0.82721791  0.94155935  0.24195935    -0.27300
C2269       C  0.83574109  0.96748873  0.22475869     0.06300
C2270       C  0.86464625  0.99253899  0.22880063     0.25900
C2271       C  0.88387537  0.99211292  0.25071368    -0.11800
C2272       C  0.87490937  0.96658434  0.26873078    -0.25700
C2273       C  0.84665054  0.94092871  0.26354658     0.36700
C2274       C  0.81371977  0.96884842  0.20418152     0.06300
F2275       F  0.87091459  0.52074903  0.21526697    -0.19500
H2276       H  0.90365012  0.51499943  0.25577498     0.16100
F2277       F  0.83711946  0.91574805  0.28030767    -0.23200
H2278       H  0.80499980  0.92206381  0.23946436     0.17900
C2279       C  0.79648673  0.94536107  0.18400304     0.25900
C2280       C  0.77431549  0.94600695  0.16637567    -0.11800
C2281       C  0.76867256  0.96982734  0.16877431    -0.25800
C2282       C  0.78629503  0.99363658  0.18840317     0.36800
C2283       C  0.80863290  0.99312876  0.20586954    -0.27400
F2284       F  0.80098891  0.92173405  0.18140416    -0.19600
H2285       H  0.76089420  0.92742655  0.15141283     0.16100
F2286       F  0.78182041  0.01729919  0.19075195    -0.23300
H2287       H  0.82137265  0.01133619  0.22143361     0.18000
C2288       C  0.61454104  0.98939322  0.25042019    -0.27300
C2289       C  0.60614162  0.97785793  0.22126237     0.06300
C2290       C  0.57694394  0.96918241  0.21110168     0.25900
C2291       C  0.55671679  0.97215031  0.22989022    -0.11800
C2292       C  0.56516559  0.98348819  0.25917493    -0.25700
C2293       C  0.59447082  0.99227106  0.26915151     0.36700
C2294       C  0.62816594  0.97501269  0.20201375     0.06300
F2295       F  0.56808093  0.46031488  0.18110493    -0.19500
H2296       H  0.53521792  0.46718332  0.22118378     0.16100
F2297       F  0.60384142  0.00356836  0.29717032    -0.23200
H2298       H  0.63669220  0.99581863  0.25896150     0.17900
C2299       C  0.65787485  0.99911829  0.19926728     0.25900
C2300       C  0.67919659  0.99577340  0.18302724    -0.11800
C2301       C  0.67131096  0.96857698  0.16878524    -0.25800
C2302       C  0.64154653  0.94460583  0.17091246     0.36800
C2303       C  0.62019905  0.94780527  0.18752357    -0.27400
F2304       F  0.66623091  0.02607255  0.21203104    -0.19600
H2305       H  0.70197013  0.01456428  0.18137151     0.16100
F2306       F  0.63343244  0.91786431  0.15781204    -0.23300
H2307       H  0.59762266  0.92881277  0.18964880     0.18000
C2308       C  0.84671430  0.82202072  0.49640317    -0.27300
C2309       C  0.84256612  0.83757136  0.47271661     0.06300
C2310       C  0.81340978  0.83201768  0.46648124     0.25900
C2311       C  0.78882283  0.81067712  0.48298505    -0.11800
C2312       C  0.79225505  0.79460328  0.00553530    -0.25700
C2313       C  0.82138986  0.80010023  0.01202573     0.36700
C2314       C  0.86788787  0.85763227  0.45272708     0.06300
F2315       F  0.80870061  0.84715309  0.44418435    -0.19500
H2316       H  0.76659034  0.80673840  0.47761619     0.16100
F2317       F  0.82571083  0.78389729  0.03342078    -0.23200
H2318       H  0.86826034  0.82469630  0.00001727     0.17900
C2319       C  0.89417049  0.88274337  0.46367227     0.25900
C2320       C  0.91644989  0.90253453  0.44359127    -0.11800
C2321       C  0.91292947  0.89741179  0.41238765    -0.25800
C2322       C  0.88704145  0.87147463  0.40180646     0.36800
C2323       C  0.86496566  0.85198128  0.42177870    -0.27400
F2324       F  0.89770703  0.88879957  0.49354678    -0.19600
H2325       H  0.93610679  0.92219555  0.45240168     0.16100
F2326       F  0.88237858  0.86522968  0.37200631    -0.23300
H2327       H  0.84510447  0.83251746  0.41294154     0.18000
C2328       C  0.62816562  0.60958062  0.44086511    -0.27300
C2329       C  0.62299337  0.63299935  0.44844117     0.06300
C2330       C  0.59847559  0.63356181  0.43522128     0.25900
C2331       C  0.58034005  0.61180157  0.41410882    -0.11800
C2332       C  0.58613477  0.58890631  0.40556296    -0.25700
C2333       C  0.60999089  0.58773747  0.41981414     0.36700
C2334       C  0.64428129  0.65753426  0.46870791     0.06300
F2335       F  0.59203188  0.65518537  0.44267627    -0.19500
H2336       H  0.56199624  0.61330700  0.40403456     0.16100
F2337       F  0.61636424  0.56597880  0.41306859    -0.23200
H2338       H  0.64700137  0.60870808  0.45057609     0.17900
C2339       C  0.65355429  0.65118632  0.49613209     0.25900
C2340       C  0.67564370  0.67441079  0.51362240    -0.11800
C2341       C  0.68900616  0.70444788  0.50417821    -0.25800
C2342       C  0.67887590  0.71086633  0.47730430     0.36800
C2343       C  0.65683716  0.68763457  0.45980292    -0.27400
F2344       F  0.64135514  0.62249001  0.50596578    -0.19600
H2345       H  0.68299489  0.66879509  0.53416713     0.16100
F2346       F  0.69031181  0.73960418  0.46787729    -0.23300
H2347       H  0.65020130  0.69315733  0.43875378     0.18000
C2348       C  0.80817430  0.83222566  0.21120035    -0.27300
C2349       C  0.83749036  0.84302309  0.20036330     0.06300
C2350       C  0.84145526  0.83305190  0.17232212     0.25900
C2351       C  0.81648847  0.81180958  0.15603247    -0.11800
C2352       C  0.78713127  0.80010543  0.16736420    -0.25700
C2353       C  0.78320020  0.81109402  0.19488795     0.36700
C2354       C  0.86356930  0.86271634  0.21966814     0.06300
F2355       F  0.86947584  0.84250133  0.16149370    -0.19500
H2356       H  0.82021473  0.80354780  0.13507451     0.16100
F2357       F  0.75526696  0.80139210  0.20609492    -0.23200
H2358       H  0.80467600  0.83989744  0.23264496     0.17900
C2359       C  0.88658517  0.89096870  0.20983667     0.25900
C2360       C  0.91016524  0.90953958  0.22928936    -0.11800
C2361       C  0.91114396  0.90021218  0.25878427    -0.25800
C2362       C  0.88848730  0.87147492  0.26811564     0.36800
C2363       C  0.86502129  0.85311122  0.24876305    -0.27400
F2364       F  0.88559471  0.90109665  0.18194651    -0.19600
H2365       H  0.92711575  0.93159025  0.22158939     0.16100
F2366       F  0.88866758  0.86113470  0.29613377    -0.23300
H2367       H  0.84771950  0.83126248  0.25660297     0.18000
C2368       C  0.62792130  0.60261082  0.23144436    -0.27300
C2369       C  0.62620534  0.62806880  0.22374428     0.06300
C2370       C  0.60331868  0.63176526  0.23666247     0.25900
C2371       C  0.58385329  0.61135054  0.25813651    -0.11800
C2372       C  0.58682131  0.58689754  0.26730681    -0.25700
C2373       C  0.60856350  0.58223627  0.25291793     0.36700
C2374       C  0.64939454  0.65147709  0.20378054     0.06300
F2375       F  0.60076989  0.65600100  0.22982885    -0.19500
H2376       H  0.56714692  0.61537535  0.26838793     0.16100
F2377       F  0.61157930  0.55827005  0.25980049    -0.23200
H2378       H  0.64473236  0.59875783  0.22116456     0.17900
C2379       C  0.68024004  0.66278628  0.20924294     0.25900
C2380       C  0.70203110  0.68617407  0.19172703    -0.11800
C2381       C  0.69364302  0.69879857  0.16838704    -0.25800
C2382       C  0.66284121  0.68711533  0.16249295     0.36800
C2383       C  0.64100627  0.66365445  0.17998283    -0.27400
F2384       F  0.68939951  0.65213026  0.23235522    -0.19600
H2385       H  0.72558312  0.69471567  0.19665251     0.16100
F2386       F  0.65382511  0.69927461  0.14070425    -0.23300
H2387       H  0.61746217  0.65522208  0.17514390     0.18000
C2388       C  0.71739021  0.72470948  0.65194911     0.04000
C2389       C  0.71716103  0.72494382  0.62036062    -0.12100
C2390       C  0.73829011  0.75036220  0.60389892     0.01500
C2391       C  0.75967089  0.77560390  0.62032649    -0.10700
C2392       C  0.76157259  0.77485960  0.65175000     0.04000
C2393       C  0.74014971  0.74940668  0.66738048    -0.10100
H2394       H  0.70081699  0.70472865  0.60904641     0.09600
H2395       H  0.77530550  0.79619220  0.60907090     0.07100
H2396       H  0.74131393  0.74863108  0.69163635     0.07000
C2397       C  0.71460078  0.72851126  0.52150686     0.04000
C2398       C  0.71357432  0.72946382  0.55306667    -0.12100
C2399       C  0.73885030  0.75028964  0.56996919     0.01500
C2400       C  0.76506574  0.77076282  0.55402718    -0.10700
C2401       C  0.76587277  0.77114775  0.52253314     0.04000
C2402       C  0.74074493  0.74970587  0.50650736    -0.10100
H2403       H  0.69271306  0.71393497  0.56403833     0.09600
H2404       H  0.78523398  0.78671661  0.56569382     0.07100
H2405       H  0.74180682  0.74919121  0.98171912     0.07000
C2406       C  0.74350368  0.96875998  0.65168567     0.04000
C2407       C  0.74172360  0.96535384  0.62033582    -0.12100
C2408       C  0.71636818  0.96160247  0.60411014     0.01500
C2409       C  0.69263350  0.96106123  0.62067638    -0.10700
C2410       C  0.69505235  0.96614380  0.65182111     0.04000
C2411       C  0.72049578  0.96996598  0.66713596    -0.10100
H2412       H  0.76077315  0.96641295  0.60904287     0.09600
H2413       H  0.67226563  0.95719752  0.60968503     0.07100
H2414       H  0.72198502  0.97309698  0.69129099     0.07000
C2415       C  0.73421906  0.95057441  0.52295252     0.04000
C2416       C  0.73385967  0.95110608  0.55446293    -0.12100
C2417       C  0.71499450  0.95892837  0.57024875     0.01500
C2418       C  0.69578535  0.96550596  0.55318344    -0.10700
C2419       C  0.69382162  0.96246817  0.52161764     0.04000
C2420       C  0.71288184  0.95434800  0.50698670    -0.07500
H2421       H  0.74867865  0.94548015  0.56623398     0.09600
H2422       H  0.68284790  0.97388970  0.56418473     0.07100
H2423       H  0.71185271  0.95246678  0.98312683     0.07000
C2424       C  0.00419589  0.74826381  0.64991364     0.04000
C2425       C  0.00224160  0.72390592  0.66579431    -0.12100
C2426       C  0.00060819  0.69935825  0.65064017     0.01500
C2427       C  0.00152531  0.69960585  0.61901159    -0.10700
C2428       C  0.00268578  0.72349581  0.60203219     0.04000
C2429       C  0.00409172  0.74772998  0.61834882    -0.10100
H2430       H  0.00160330  0.72384623  0.69013367     0.09600
H2431       H  0.00099544  0.68064159  0.60817485     0.07100
H2432       H  0.00513025  0.76663306  0.60715452     0.07000
C2433       C  0.00885453  0.74904181  0.51937853     0.04000
C2434       C  0.00861206  0.74906472  0.55091678    -0.12100
C2435       C  0.00263913  0.72331703  0.56780629     0.01500
C2436       C  0.99635851  0.69727596  0.55140914    -0.10700
C2437       C  0.99913437  0.69755334  0.51985187     0.04000
C2438       C  0.00531169  0.72373801  0.50421305    -0.10100
H2439       H  0.01338995  0.76967063  0.56150375     0.09600
H2440       H  0.98842934  0.67618577  0.56286423     0.07100
H2441       H  0.00659972  0.72377807  0.98055528     0.07000
O2442       O  0.52052784  0.91697621  0.86741615    -0.87300
C2443       C  0.56807547  0.56718104  0.79263492     1.12800
O2444       O  0.98975326  0.94767371  0.83529845    -1.35100
O2445       O  0.57481183  0.54838885  0.87141592    -0.88800
O2446       O  0.97047183  0.88771486  0.86791885    -0.89400
O2447       O  0.95701205  0.94381228  0.89893307    -0.78300
O2448       O  0.54916310  0.98362864  0.86378647    -1.00300
C2449       C  0.98072927  0.52710188  0.89177667     1.22800
O2450       O  0.95355964  0.97357578  0.83616561    -1.35200
Mn2451     Mn  0.98629230  0.97734181  0.80313592     1.82100
O2452       O  0.98352682  0.50521501  0.89914949    -0.77300
O2453       O  0.54629578  0.56964532  0.87006371    -0.86700
C2454       C  0.98128180  0.52931473  0.78154364     1.13900
C2455       C  0.56783728  0.56734484  0.88106321     1.08600
O2456       O  0.95647624  0.94515903  0.77239152    -0.78300
O2457       O  0.51573218  0.50923124  0.83625572    -1.32000
O2458       O  0.93069008  0.91552546  0.80733535    -0.97500
C2459       C  0.89495614  0.96591612  0.88153349     1.07300
Mn2460     Mn  0.51369626  0.54945202  0.83662563     1.48600
O2461       O  0.89266414  0.94228738  0.87014818    -0.86700
Mn2462     Mn  0.95241866  0.90336089  0.83490995     1.49600
O2463       O  0.51981086  0.91857419  0.80007552    -0.90600
C2464       C  0.54349156  0.98186703  0.89058094     1.20500
C2465       C  0.99564975  0.89674222  0.78954749     1.12600
Mn2466     Mn  0.98657323  0.97672296  0.86822559     1.81000
O2467       O  0.98014928  0.53214340  0.80858252    -0.95700
Mn2468     Mn  0.53232230  0.95022013  0.83475097     1.49300
C2469       C  0.99649367  0.89461830  0.87754774     1.09100
Mn2470     Mn  0.94635070  0.51041281  0.83628339     1.49900
C2471       C  0.89483331  0.96753717  0.79336500     1.12000
O2472       O  0.93111636  0.91487229  0.86369381    -1.01500
O2473       O  0.54622585  0.56965445  0.80255537    -0.91200
C2474       C  0.93496544  0.91937963  0.89061957     1.23300
O2475       O  0.97966909  0.53193456  0.86508166    -1.01900
O2476       O  0.57523124  0.54896887  0.80372174    -0.89300
O2477       O  0.91443405  0.49341717  0.80184775    -0.88900
O2478       O  0.96988979  0.88907161  0.80037449    -0.88900
Mn2479     Mn  0.55994024  0.51597975  0.83683425     1.47900
O2480       O  0.98397825  0.50773393  0.77260934    -0.77400
C2481       C  0.93428339  0.92077945  0.78048775     1.16300
O2482       O  0.51886865  0.97897244  0.89851734    -0.76100
O2483       O  0.51882048  0.98075218  0.77210528    -0.75700
Mn2484     Mn  0.91315258  0.93101092  0.83604346     1.51100
O2485       O  0.91226695  0.49155557  0.86922563    -0.88100
O2486       O  0.54784201  0.98420562  0.80738776    -0.95600
O2487       O  0.89249644  0.94320970  0.80281515    -0.90600
C2488       C  0.54325845  0.98327342  0.78048897     1.14100
C2489       C  0.96118063  0.57933110  0.93206241    -0.27300
C2490       C  0.98520987  0.59399181  0.95242584     0.06300
C2491       C  0.50642515  0.58430484  0.95421263     0.25900
C2492       C  0.50358037  0.56094330  0.93586449    -0.11800
C2493       C  0.98065212  0.54798252  0.91431480    -0.25700
C2494       C  0.95961049  0.55757461  0.91243198     0.36700
C2495       C  0.98856463  0.62014096  0.97016962     0.06300
F2496       F  0.53085486  0.59837666  0.97236425    -0.19500
H2497       H  0.52044746  0.55433132  0.93716220     0.16100
F2498       F  0.93781960  0.54645597  0.89115947    -0.23200
H2499       H  0.94381599  0.58522115  0.93064731     0.17900
C2500       C  0.98133355  0.64070905  0.95735958     0.25900
C2501       C  0.98341501  0.66443183  0.97425938    -0.11800
C2502       C  0.99518917  0.67054902  0.50303111    -0.25800
C2503       C  0.00345005  0.65057950  0.51563909     0.36800
C2504       C  0.99914879  0.62502092  0.99994879    -0.27400
F2505       F  0.97316442  0.63870311  0.92806037    -0.19600
H2506       H  0.97614064  0.67858999  0.96373492     0.16100
F2507       F  0.01646410  0.65557437  0.54315289    -0.23300
H2508       H  0.00481700  0.61012834  0.51044898     0.18000
C2509       C  0.52796090  0.80712104  0.95864610    -0.27300
C2510       C  0.00898646  0.81814468  0.96543823     0.06300
C2511       C  0.99142483  0.80781670  0.99169408     0.25900
C2512       C  0.99231191  0.78608775  0.00981980    -0.11800
C2513       C  0.01070980  0.77418673  0.00221644    -0.25700
C2514       C  0.52880478  0.78539085  0.97679092     0.36700
C2515       C  0.00593083  0.83883060  0.94430039     0.06300
F2516       F  0.97318690  0.81855169  0.99968943    -0.19500
H2517       H  0.97777089  0.77796109  0.52899678     0.16100
F2518       F  0.54784249  0.77546827  0.96934116    -0.23200
H2519       H  0.54181667  0.81472607  0.93864815     0.17900
C2520       C  0.53112607  0.86431881  0.93274072     0.25900
C2521       C  0.52790695  0.88250752  0.91148121    -0.11800
C2522       C  0.99931840  0.87572360  0.90125517    -0.25800
C2523       C  0.97387044  0.85036807  0.91336748     0.36800
C2524       C  0.97726429  0.83222392  0.93454789    -0.27400
F2525       F  0.55916301  0.87184024  0.94212046    -0.19600
H2526       H  0.54803562  0.90184326  0.90289672     0.16100
F2527       F  0.94564316  0.84262624  0.90447281    -0.23300
H2528       H  0.95735785  0.81244628  0.94282839     0.18000
C2529       C  0.48082622  0.59882630  0.75369829    -0.27300
C2530       C  0.98556205  0.59821491  0.72253038     0.06300
C2531       C  0.98742979  0.57384851  0.71071094     0.25900
C2532       C  0.98550346  0.55117129  0.72973006    -0.11800
C2533       C  0.98129594  0.55205707  0.76084094    -0.25700
C2534       C  0.47831189  0.57599643  0.77250181     0.36700
C2535       C  0.98865887  0.62332233  0.70307868     0.06300
F2536       F  0.99067679  0.57166247  0.68073053    -0.19500
H2537       H  0.98751821  0.53301966  0.72010861     0.16100
F2538       F  0.47355227  0.57774704  0.80224840    -0.23200
H2539       H  0.47988482  0.61741537  0.76373125     0.17900
C2540       C  0.96979009  0.63550993  0.70718281     0.25900
C2541       C  0.97388450  0.66003757  0.69005204    -0.11800
C2542       C  0.99656554  0.67292145  0.66814921    -0.25800
C2543       C  0.01520804  0.66062520  0.66366086     0.36800
C2544       C  0.01137589  0.63624425  0.68107854    -0.27400
F2545       F  0.94698996  0.62347916  0.72745656    -0.19600
H2546       H  0.95901548  0.66886691  0.69372282     0.16100
F2547       F  0.03786106  0.67288322  0.64325280    -0.23300
H2548       H  0.02674621  0.62796536  0.67784636     0.18000
C2549       C  0.98699271  0.80832877  0.67564653    -0.27300
C2550       C  0.00585973  0.82032335  0.70079349     0.06300
C2551       C  0.52448313  0.80913970  0.70862071     0.25900
C2552       C  0.52438473  0.78631026  0.69160378    -0.11800
C2553       C  0.00562216  0.77402569  0.66648741    -0.25700
C2554       C  0.98686899  0.78551465  0.65859105     0.36700
C2555       C  0.00321808  0.84200917  0.72069360     0.06300
F2556       F  0.54196384  0.81910070  0.73359772    -0.19500
H2557       H  0.53887627  0.77777035  0.69834192     0.16100
F2558       F  0.96728073  0.77370057  0.63531327    -0.23200
H2559       H  0.97181365  0.81624576  0.66957363     0.17900
C2560       C  0.02870281  0.86870209  0.73022670     0.25900
C2561       C  0.02595651  0.88693055  0.75176467    -0.11800
C2562       C  0.99772535  0.87907051  0.76413302    -0.25800
C2563       C  0.97197069  0.85343188  0.75282361     0.36800
C2564       C  0.97483431  0.83514194  0.73150983    -0.27400
F2565       F  0.55606321  0.87687576  0.71902514    -0.19600
H2566       H  0.54603699  0.90685634  0.75933290     0.16100
F2567       F  0.94400076  0.84537203  0.76286179    -0.23300
H2568       H  0.95482257  0.81489640  0.72421825     0.18000
C2569       C  0.82967125  0.93121932  0.93740595    -0.27300
C2570       C  0.83002102  0.95664406  0.94903743     0.06300
C2571       C  0.84405453  0.48182570  0.92957089     0.25900
C2572       C  0.86597286  0.48548375  0.90864555    -0.11800
C2573       C  0.87374411  0.96258115  0.90624210    -0.25700
C2574       C  0.85116477  0.93399760  0.91637064     0.36700
C2575       C  0.80541136  0.95320743  0.96935143     0.06300
F2576       F  0.83886398  0.50481178  0.93411798    -0.19500
H2577       H  0.87831631  0.50666825  0.89689462     0.16100
F2578       F  0.84917595  0.90852094  0.90550479    -0.23200
H2579       H  0.81238719  0.90900942  0.94437404     0.17900
C2580       C  0.77501350  0.93457648  0.96130090     0.25900
C2581       C  0.75200182  0.93275436  0.97956728    -0.11800
C2582       C  0.75864546  0.94961099  0.00617965    -0.25800
C2583       C  0.78892488  0.96723686  0.51468159     0.36800
C2584       C  0.81208839  0.96930866  0.99641821    -0.27400
F2585       F  0.76752926  0.91925442  0.93496744    -0.19600
H2586       H  0.72888799  0.91863999  0.97245637     0.16100
F2587       F  0.79657192  0.98510710  0.53930367    -0.23300
H2588       H  0.83513240  0.98359556  0.50317575     0.18000
C2589       C  0.57578842  0.95720815  0.95339854    -0.27300
C2590       C  0.60679390  0.97835039  0.95123582     0.06300
C2591       C  0.61427387  0.49647949  0.92901336     0.25900
C2592       C  0.59381683  0.49818916  0.90968659    -0.11800
C2593       C  0.56467565  0.98147935  0.91261068    -0.25700
C2594       C  0.55485643  0.95926712  0.93491054     0.36700
C2595       C  0.62923446  0.97535382  0.97020261     0.06300
F2596       F  0.64382156  0.51757293  0.92643086    -0.19500
H2597       H  0.60221331  0.51490375  0.89203664     0.16100
F2598       F  0.52520709  0.93856310  0.93770506    -0.23200
H2599       H  0.56763902  0.93850652  0.96881657     0.17900
C2600       C  0.62303385  0.96506883  0.00018190     0.25900
C2601       C  0.64423928  0.96131308  0.51631346    -0.11800
C2602       C  0.67212628  0.96794122  0.50390549    -0.25800
C2603       C  0.67878014  0.98026281  0.97524702     0.36800
C2604       C  0.65730255  0.98252184  0.95808890    -0.27400
F2605       F  0.59788191  0.96057262  0.51356591    -0.19600
H2606       H  0.63822336  0.95265224  0.53895248     0.16100
F2607       F  0.70090595  0.47840721  0.95829759    -0.23300
H2608       H  0.65771415  0.47991507  0.93204594     0.18000
C2609       C  0.82741415  0.94128952  0.74177445    -0.27300
C2610       C  0.83575427  0.96727955  0.72474311     0.06300
C2611       C  0.86457546  0.99244200  0.72889491     0.25900
C2612       C  0.88387096  0.99206480  0.75076066    -0.11800
C2613       C  0.87507983  0.96647103  0.76861275    -0.25700
C2614       C  0.84693000  0.94070392  0.76329600     0.36700
C2615       C  0.81365584  0.96859734  0.70421739     0.06300
F2616       F  0.87158827  0.52148968  0.71557398    -0.19500
H2617       H  0.90391721  0.51515939  0.75609532     0.16100
F2618       F  0.83758088  0.91543109  0.77985750    -0.23200
H2619       H  0.80527424  0.92169901  0.73920355     0.17900
C2620       C  0.79645685  0.94516740  0.68395733     0.25900
C2621       C  0.77440440  0.94593330  0.66620900    -0.11800
C2622       C  0.76882511  0.96980156  0.66858582    -0.25800
C2623       C  0.78633672  0.99348423  0.68838661     0.36800
C2624       C  0.80855448  0.99286509  0.70595352    -0.27400
F2625       F  0.80089966  0.92150225  0.68136134    -0.19600
H2626       H  0.76103193  0.92741647  0.65116215     0.16100
F2627       F  0.78187230  0.01714767  0.69080535    -0.23300
H2628       H  0.82121659  0.01100466  0.72160940     0.18000
C2629       C  0.61465779  0.98878390  0.75061364    -0.27300
C2630       C  0.60621276  0.97708677  0.72151169     0.06300
C2631       C  0.57691184  0.96812558  0.71145418     0.25900
C2632       C  0.55668587  0.97109900  0.73023423    -0.11800
C2633       C  0.56524646  0.98275972  0.75939515    -0.25700
C2634       C  0.59461036  0.99173098  0.76930742     0.36700
C2635       C  0.62835088  0.97455235  0.70214302     0.06300
F2636       F  0.56791611  0.46004162  0.68110857    -0.19500
H2637       H  0.53494587  0.46682451  0.72112585     0.16100
F2638       F  0.60408110  0.00333937  0.79720746    -0.23200
H2639       H  0.63686055  0.99537219  0.75911862     0.17900
C2640       C  0.65802346  0.99878677  0.69957321     0.25900
C2641       C  0.67942673  0.99576700  0.68313126    -0.11800
C2642       C  0.67164442  0.96880481  0.66846117    -0.25800
C2643       C  0.64191522  0.94474461  0.67033499     0.36800
C2644       C  0.62050142  0.94757880  0.68721330    -0.27400
F2645       F  0.66627194  0.02556540  0.71269183    -0.19600
H2646       H  0.70218016  0.01462427  0.68165996     0.16100
F2647       F  0.63390721  0.91825515  0.65671720    -0.23300
H2648       H  0.59796722  0.92848017  0.68917893     0.18000
C2649       C  0.84614189  0.82141170  0.99539223    -0.27300
C2650       C  0.84213990  0.83735121  0.97200904     0.06300
C2651       C  0.81312116  0.83231005  0.96605548     0.25900
C2652       C  0.78850527  0.81115626  0.98264833    -0.11800
C2653       C  0.79269670  0.79442537  0.50611255    -0.25700
C2654       C  0.82198979  0.80052986  0.51297401     0.36700
C2655       C  0.86749709  0.85740073  0.95211904     0.06300
F2656       F  0.80858429  0.84777310  0.94397764    -0.19500
H2657       H  0.76635392  0.80757521  0.97753537     0.16100
F2658       F  0.82654130  0.78475124  0.53467468    -0.23200
H2659       H  0.86893870  0.82571211  0.50130095     0.17900
C2660       C  0.89383740  0.88230066  0.96324625     0.25900
C2661       C  0.91623262  0.90214092  0.94331761    -0.11800
C2662       C  0.91276081  0.89724417  0.91209530    -0.25800
C2663       C  0.88679448  0.87149316  0.90131328     0.36800
C2664       C  0.86458240  0.85197315  0.92114106    -0.27400
F2665       F  0.89732093  0.88809894  0.99316858    -0.19600
H2666       H  0.93595017  0.92165108  0.95226056     0.16100
F2667       F  0.88220885  0.86545161  0.87146851    -0.23300
H2668       H  0.84465130  0.83266630  0.91218491     0.18000
C2669       C  0.62771681  0.60897307  0.94113693    -0.27300
C2670       C  0.62299366  0.63278509  0.94817729     0.06300
C2671       C  0.59879148  0.63367042  0.93461429     0.25900
C2672       C  0.58054211  0.61184419  0.91364488    -0.11800
C2673       C  0.58593268  0.58858045  0.90556592    -0.25700
C2674       C  0.60943325  0.58707163  0.92019564     0.36700
C2675       C  0.64442645  0.65743192  0.96819535     0.06300
F2676       F  0.59281059  0.65572270  0.94155063    -0.19500
H2677       H  0.56247156  0.61361929  0.90327162     0.16100
F2678       F  0.61535302  0.56492011  0.91393509    -0.23200
H2679       H  0.64629801  0.60784412  0.95114847     0.17900
C2680       C  0.65335011  0.65131958  0.99594386     0.25900
C2681       C  0.67528891  0.67469550  0.01339610    -0.11800
C2682       C  0.68883436  0.70463264  0.00357422    -0.25800
C2683       C  0.67914109  0.71079134  0.97626915     0.36800
C2684       C  0.65728527  0.68741545  0.95881056    -0.27400
F2685       F  0.64092000  0.62272791  0.00616138    -0.19600
H2686       H  0.68236079  0.66926725  0.03423228     0.16100
F2687       F  0.69078902  0.73941269  0.96638093    -0.23300
H2688       H  0.65095555  0.69273375  0.93746954     0.18000
C2689       C  0.80837968  0.83166026  0.71191156    -0.27300
C2690       C  0.83766225  0.84231773  0.70110468     0.06300
C2691       C  0.84168072  0.83234185  0.67311865     0.25900
C2692       C  0.81674764  0.81122289  0.65675499    -0.11800
C2693       C  0.78738334  0.79970297  0.66796946    -0.25700
C2694       C  0.78341249  0.81069538  0.69548409     0.36700
C2695       C  0.86374191  0.86209296  0.72022886     0.06300
F2696       F  0.86973290  0.84174168  0.66240906    -0.19500
H2697       H  0.82049329  0.80292210  0.63583241     0.16100
F2698       F  0.75546030  0.80116447  0.70655135    -0.23200
H2699       H  0.80491273  0.83936117  0.73335380     0.17900
C2700       C  0.88592977  0.89078407  0.71058236     0.25900
C2701       C  0.90962362  0.90949010  0.72980510    -0.11800
C2702       C  0.91150952  0.89981181  0.75885726    -0.25800
C2703       C  0.88975246  0.87060667  0.76794590     0.36800
C2704       C  0.86611103  0.85211444  0.74883149    -0.27400
F2705       F  0.88398505  0.90113365  0.68311783    -0.19600
H2706       H  0.92589123  0.93190075  0.72234314     0.16100
F2707       F  0.89103811  0.85994089  0.79547556    -0.23300
H2708       H  0.84942679  0.82990045  0.75643943     0.18000
C2709       C  0.62792605  0.60262429  0.73188420    -0.27300
C2710       C  0.62624574  0.62810210  0.72423287     0.06300
C2711       C  0.60326503  0.63174444  0.73697281     0.25900
C2712       C  0.58366112  0.61124327  0.75829606    -0.11800
C2713       C  0.58660949  0.58677897  0.76746339    -0.25700
C2714       C  0.60842117  0.58215339  0.75318288     0.36700
C2715       C  0.64954517  0.65154757  0.70445448     0.06300
F2716       F  0.60077191  0.65601067  0.73012821    -0.19500
H2717       H  0.56688369  0.61521901  0.76845379     0.16100
F2718       F  0.61138681  0.55815083  0.76003098    -0.23200
H2719       H  0.64483081  0.59884375  0.72171422     0.17900
C2720       C  0.68034212  0.66295615  0.71025998     0.25900
C2721       C  0.70223589  0.68619185  0.69270144    -0.11800
C2722       C  0.69397507  0.69859069  0.66903680    -0.25800
C2723       C  0.66322000  0.68691293  0.66292599     0.36800
C2724       C  0.64128621  0.66356402  0.68041935    -0.27400
F2725       F  0.68932890  0.65252202  0.73371291    -0.19600
H2726       H  0.72575588  0.69479116  0.69784228     0.16100
F2727       F  0.65434641  0.69897909  0.64091217    -0.23300
H2728       H  0.61776912  0.65507835  0.67538642     0.18000
loop_ 
_geom_bond_atom_site_label_1 
_geom_bond_atom_site_label_2 
_geom_bond_distance 
_geom_bond_site_symmetry_2 
_ccdc_geom_bond_type 
C1            C2   1.407       .  A
C1            C6   1.403       .  A
C1          C335   1.488       .  S
C2            C3   1.414       .  A
C2            H7   1.080       .  S
C3            C4   1.414       .  A
C3           C12   1.509       .  S
C4            C5   1.401       .  A
C4            H8   1.079       .  S
C5            C6   1.401       .  A
C5          C306   1.486       .  S
C6            H9   1.083       .  S
C10          C11   1.407       .  A
C10          C15   1.399       .  A
C10         C636   1.485       .  S
C11          C12   1.416       .  A
C11          H16   1.080       .  S
C12          C13   1.414       .  A
C13          C14   1.401       .  A
C13          H17   1.077       .  S
C14          C15   1.398       .  A
C14         C266   1.484       .  S
C15         H359   1.084   1_554  S
H18         C356   1.084       .  S
C19          C20   1.406       .  A
C19          C24   1.401       .  A
C19         C235   1.489       .  S
C20          C21   1.416       .  A
C20          H25   1.079       .  S
C21          C22   1.417       .  A
C21          C30   1.513       .  S
C22          C23   1.404       .  A
C22          H26   1.080       .  S
C23          C24   1.399       .  A
C23         C255   1.482       .  S
C24          H27   1.084       .  S
C28          C29   1.403       .  A
C28          C33   1.399       .  A
C28         C536   1.486       .  S
C29          C30   1.415       .  A
C29          H34   1.079       .  S
C30          C31   1.415       .  A
C31          C32   1.411       .  A
C31          H35   1.078       .  S
C32          C33   1.406       .  A
C32         C215   1.502       .  S
C33         H377   1.081   1_554  S
H36         C374   1.080       .  S
C37          C38   1.399       .  A
C37          C42   1.407       .  A
C37         C166   1.488       .  S
C38          C39   1.397       .  A
C38          H43   1.084       .  S
C39          C40   1.402       .  A
C39         C155   1.482       .  S
C40          C41   1.419       .  A
C40          H44   1.076       .  S
C41          C42   1.420       .  A
C41          C48   1.516       .  S
C42          H45   1.077       .  S
C46          C47   1.404       .  A
C46          C51   1.399       .  A
C46         C467   1.485       .  S
C47          C48   1.416       .  A
C47          H52   1.077       .  S
C48          C49   1.417       .  A
C49          C50   1.408       .  A
C49          H53   1.075       .  S
C50          C51   1.403       .  A
C50         C115   1.499       .  S
C51         H395   1.082   1_554  S
H54         C392   1.081       .  S
O55         Mn81   2.077       .  S
O55        C1446   1.269   1_455  A
C56         C326   1.491       .  S
C56          O89   1.272       .  A
C56          O86   1.274       .  A
O57         Mn64   2.171       .  S
O57         Mn75   2.120       .  S
O57         Mn79   2.163       .  S
O57       Mn1445   2.133       .  S
O58         Mn92   2.102       .  S
O58          C68   1.274       .  A
O59         Mn75   2.101       .  S
O59          C82   1.274       .  A
O60         Mn79   2.100       .  S
O60          C87   1.251       .  A
O61         Mn81   1.969       .  S
O61        Mn774   1.967       .  S
O61          C77   1.220       .  S
C62         C106   1.475       .  S
C62          O65   1.254       .  A
C62          O88   1.219       .  S
O63         Mn64   2.171       .  S
O63         Mn97   2.133       .  S
O63         Mn79   2.167       .  S
O63        Mn765   2.120       .  S
Mn64         O69   2.100       .  S
Mn64        O775   2.125       .  S
Mn64       O1460   2.115       .  S
Mn64       O2116   2.165       .  S
O65        Mn761   2.104   1_545  S
O66         Mn73   2.086       .  S
O66          C68   1.271       .  A
C67         C146   1.488       .  S
C67          O93   1.254       .  A
C67          O80   1.221       .  S
C68         C286   1.489       .  S
O69          C94   1.254       .  A
O70         Mn73   2.136       .  S
O70         Mn92   2.120       .  S
O70       Mn2110   2.166   1_445  S
O70       Mn2125   2.167   1_445  S
O71         Mn75   1.970       .  S
O71         Mn97   1.957       .  S
O71          C94   1.220       .  S
C72         C186   1.491       .  S
C72          O74   1.270       .  A
C72         O780   1.274       .  A
Mn73         O86   2.104       .  S
Mn73       O1452   1.968   1_455  S
Mn73       O1444   1.954   1_455  S
O74         Mn97   2.089       .  S
Mn75         O91   2.078       .  S
Mn75         O85   1.954       .  S
O76         Mn81   2.107       .  S
O76        C1442   1.275   1_455  A
C77         C206   1.474       .  S
C77          O95   1.251       .  A
C78         C175   1.488       .  S
C78          O91   1.269       .  A
C78        O1440   1.274       .  A
Mn79        O747   2.100       .  S
Mn79       O1459   2.098       .  S
Mn79       O2116   2.158       .  S
O80         Mn83   1.970       .  S
O80       Mn1437   1.955       .  S
Mn81       O1421   2.133   1_455  S
Mn81         O99   1.947       .  S
C82         C135   1.486       .  S
C82        O1419   1.269       .  A
Mn83         O90   2.084   1_545  S
Mn83         O98   2.117   1_545  S
Mn83        O745   2.122   1_545  S
Mn83         O88   1.967       .  S
C84         C226   1.486       .  S
C84         O100   1.272       .  A
C84         O772   1.272       .  A
O85         Mn97   1.954       .  S
O85          C87   1.217       .  S
C87         C275   1.478       .  S
O88       Mn1437   1.968       .  S
O89         Mn92   2.093       .  S
O90         C766   1.270       .  A
Mn92        O743   1.977   1_545  S
Mn92        O781   1.956   1_545  S
O93        Mn746   2.105   1_545  S
C94         C315   1.481       .  S
O95       Mn1443   2.097   1_455  S
O96       Mn1428   2.115   1_455  S
O96         C101   1.255       .  A
Mn97        O100   2.096       .  S
O98         C754   1.276       .  A
O99        Mn774   1.972       .  S
O99         C101   1.219       .  S
C101        C246   1.488       .  S
C102        C103   1.407       .  A
C102        C107   1.393       .  A
C102        H112   1.082       .  S
C103       C1468   1.415       .  A
C103        C108   1.498       .  S
C104        C105   1.404       .  A
C104       C1467   1.415   1_455  A
C104        F109   1.357       .  S
C105       C1470   1.403   1_455  A
C105        H110   1.083       .  S
C106        C107   1.403       .  A
C106       C1469   1.403       .  A
C107        F111   1.356       .  S
C108        C113   1.412       .  A
C108        C117   1.407       .  A
C113        C114   1.395       .  A
C113        F118   1.358       .  S
C114        C456   1.407       .  A
C114        H119   1.082       .  S
C115        C116   1.412       .  A
C115        C455   1.407   1_554  A
C116        C458   1.402   1_554  A
C116        F120   1.357       .  S
C117        C457   1.401       .  A
C117        H462   1.081       .  S
H121        C458   1.081   1_554  S
C122        C127   1.398       .  A
C122       C1487   1.407       .  A
C122        H132   1.083       .  S
C123        C124   1.408       .  A
C123       C1486   1.407       .  A
C123        C128   1.487       .  S
C124        C125   1.398       .  A
C124        F129   1.358       .  S
C125        C126   1.404       .  A
C125        H471   1.083       .  S
C126       C1491   1.407       .  A
C126        C387   1.484       .  S
C127       C1490   1.407       .  A
C127        F131   1.358       .  S
C128        C137   1.406       .  A
C128       C1497   1.406       .  A
H130        C466   1.083       .  S
C133        C134   1.396       .  A
C133       C1492   1.406       .  A
C133        F138   1.358       .  S
C134       C1499   1.409   1_455  A
C134        H139   1.083       .  S
C135        C136   1.408       .  A
C135       C1498   1.409       .  A
C136        C137   1.398       .  A
C136        F140   1.357       .  S
C137        H141   1.083       .  S
C142        C147   1.395       .  A
C142       C1507   1.404       .  A
C142        H152   1.083       .  S
C143        C144   1.408       .  A
C143       C1506   1.403       .  A
C143        C148   1.488       .  S
C144        C145   1.404       .  A
C144        F149   1.357       .  S
C145        C146   1.408       .  A
C145        H150   1.083       .  S
C146       C1511   1.410       .  A
C147       C1510   1.410       .  A
C147        F151   1.358       .  S
C148        C153   1.407       .  A
C148        C157   1.408       .  A
C153        C154   1.395       .  A
C153        F158   1.357       .  S
C154        C155   1.402       .  A
C154        H159   1.083       .  S
C155        C156   1.407       .  A
C156        C157   1.404       .  A
C156        F160   1.358       .  S
C157        H161   1.083       .  S
C162        C163   1.407       .  A
C162        C167   1.401       .  A
C162        H172   1.083       .  S
C163       C1528   1.406       .  A
C163        C168   1.486       .  S
C164        C165   1.398       .  A
C164       C1527   1.406   1_455  A
C164        F169   1.357       .  S
C165       C1530   1.407   1_455  A
C165        H170   1.083       .  S
C166        C167   1.407       .  A
C166       C1529   1.406       .  A
C167        F171   1.357       .  S
C168        C173   1.408       .  A
C168        C177   1.402       .  A
C173        C174   1.401       .  A
C173       F1542   1.357       .  S
C174        C175   1.408       .  A
C174       H1543   1.083       .  S
C175        C176   1.413       .  A
C176        C177   1.395       .  A
C176        F180   1.358       .  S
C177        H181   1.083       .  S
F178       C1537   1.357       .  S
H179       C1538   1.083       .  S
C182        C183   1.403       .  A
C182        C187   1.400       .  A
C182        H192   1.083       .  S
C183        C866   1.409       .  A
C183        C188   1.489       .  S
C184        C185   1.403       .  A
C184        C865   1.408       .  A
C184        F189   1.357   1_565  S
C185        C868   1.408       .  A
C185        H190   1.082   1_565  S
C186        C187   1.413       .  A
C186        C867   1.407       .  A
C187        F191   1.356       .  S
C188        C193   1.409       .  A
C188        C197   1.404       .  A
C193        C194   1.402       .  A
C193        F198   1.357       .  S
C194        C195   1.405       .  A
C194        H199   1.083       .  S
C195        C537   1.408       .  A
C195        C369   1.487       .  S
C196        C536   1.408       .  A
C196        C538   1.399   1_554  A
C196        F200   1.358       .  S
C197        C537   1.399       .  A
C197        H542   1.083       .  S
H201        C538   1.083       .  S
C202        C203   1.410       .  A
C202        C207   1.401       .  A
C202        H212   1.082       .  S
C203        C886   1.412       .  A
C203        C208   1.496       .  S
C204        C205   1.397       .  A
C204        C885   1.414   1_545  A
C204        F209   1.357       .  S
C205        C888   1.399   1_545  A
C205        H210   1.082       .  S
C206        C207   1.404       .  A
C206        C887   1.400       .  A
C207        F211   1.357       .  S
C208        C213   1.409       .  A
C208        C217   1.405       .  A
C213        C555   1.401       .  A
C213        F559   1.357       .  S
C214        C215   1.410       .  A
C214        C554   1.402   1_554  A
C214        H219   1.082       .  S
C215        C557   1.413   1_554  A
C216        C217   1.396       .  A
C216        C556   1.413       .  A
C216        F902   1.356       .  S
C217        H903   1.082       .  S
F218        C554   1.357   1_554  S
F220        C898   1.357       .  S
H221        C899   1.081       .  S
C222        C223   1.405       .  A
C222        C227   1.400       .  A
C222        H232   1.083       .  S
C223        C224   1.406       .  A
C223        C228   1.486       .  S
C224        C225   1.397       .  A
C224        F911   1.358       .  S
C225        C226   1.408       .  A
C225        H912   1.083       .  S
C226        C227   1.410       .  A
C227        F231   1.358       .  S
C228        C233   1.406       .  A
C228        C237   1.406       .  A
F229        C906   1.358   1_545  S
H230        C907   1.084   1_545  S
C233        C234   1.400       .  A
C233        F238   1.357       .  S
C234        C235   1.407       .  A
C234        H239   1.083       .  S
C235        C236   1.408       .  A
C236        C237   1.399       .  A
C236        F240   1.357       .  S
C237        H241   1.083       .  S
C242        C243   1.402       .  A
C242        C247   1.396       .  A
C242        H252   1.083       .  S
C243        C244   1.407       .  A
C243        C248   1.487       .  S
C244        C245   1.405       .  A
C244        F931   1.357       .  S
C245        C246   1.407       .  A
C245        H932   1.083       .  S
C246        C247   1.411       .  A
C247        F251   1.358       .  S
C248        C253   1.407       .  A
C248        C257   1.407       .  A
F249        C926   1.357       .  S
H250        C927   1.083       .  S
C253        C254   1.397       .  A
C253        F258   1.358       .  S
C254        C255   1.403       .  A
C254        H259   1.084       .  S
C255        C256   1.406       .  A
C256        C257   1.404       .  A
C256        F260   1.357       .  S
C257        H261   1.083       .  S
C262        C263   1.402       .  A
C262        C608   1.399       .  A
C262        H613   1.083       .  S
C263        C264   1.404       .  A
C263        C268   1.473       .  S
C264        C265   1.393       .  A
C264        F269   1.358       .  S
C265        C607   1.405       .  A
C265        H270   1.083       .  S
C266        C267   1.410       .  A
C266        C606   1.406   1_554  A
C267        C603   1.399   1_554  A
C267        F271   1.357       .  S
C268        C273   1.404       .  A
C268        C277   1.399       .  A
H272        C603   1.083       .  S
C273        C274   1.400       .  A
C273        F278   1.357       .  S
C274        C275   1.406       .  A
C274        H279   1.083       .  S
C275        C276   1.411       .  A
C276        C277   1.391       .  A
C276        F280   1.358       .  S
C277        H281   1.084       .  S
C282        C283   1.404       .  A
C282        C287   1.398       .  A
C282        H292   1.083       .  S
C283        C284   1.405       .  A
C283        C288   1.485       .  S
C284        C285   1.399       .  A
C284        F289   1.358       .  S
C285        C286   1.410       .  A
C285        H290   1.083       .  S
C286        C287   1.410       .  A
C287        F291   1.355       .  S
C288        C293   1.408       .  A
C288        C297   1.404       .  A
C293        C294   1.399       .  A
C293        F298   1.357       .  S
C294        C295   1.404       .  A
C294        H299   1.083       .  S
C295        C296   1.408       .  A
C295        C351   1.484       .  S
C296        C297   1.398       .  A
C296        F300   1.358       .  S
C297        H301   1.083       .  S
C302        C303   1.403       .  A
C302        C307   1.400       .  A
C302        H312   1.083       .  S
C303        C304   1.402       .  A
C303        C308   1.476       .  S
C304        C305   1.399       .  A
C304        F309   1.357       .  S
C305        C306   1.407       .  A
C305        H310   1.083       .  S
C306        C307   1.407       .  A
C307        F311   1.357       .  S
C308        C313   1.404       .  A
C308        C317   1.400       .  A
C313        C314   1.402       .  A
C313        F318   1.357       .  S
C314        C315   1.407       .  A
C314        H319   1.083       .  S
C315        C316   1.410       .  A
C316        C317   1.397       .  A
C316        F320   1.358       .  S
C317        H321   1.083       .  S
C322        C323   1.402       .  A
C322        C327   1.398       .  A
C322        H332   1.083       .  S
C323        C324   1.407       .  A
C323        C328   1.486       .  S
C324        C325   1.402       .  A
C324        F329   1.357       .  S
C325        C326   1.409       .  A
C325        H330   1.083       .  S
C326        C327   1.412       .  A
C327        F331   1.357       .  S
C328        C333   1.407       .  A
C328        C337   1.404       .  A
C333        C334   1.398       .  A
C333        F338   1.358       .  S
C334        C335   1.405       .  A
C334        H339   1.083       .  S
C335        C336   1.409       .  A
C336        C337   1.401       .  A
C336        F340   1.357       .  S
C337        H341   1.083       .  S
C342        C343   1.407       .  A
C342        C347   1.403       .  A
C342        C676   1.488       .  S
C343        C344   1.414       .  A
C343        H348   1.080       .  S
C344        C345   1.414       .  A
C344        C353   1.508       .  S
C345        C346   1.400       .  A
C345        H349   1.079       .  S
C346        C347   1.400       .  A
C346        C647   1.483       .  S
C347        H350   1.083       .  S
C351        C352   1.407       .  A
C351        C356   1.399       .  A
C352        C353   1.416       .  A
C352        H357   1.080       .  S
C353        C354   1.414       .  A
C354        C355   1.401       .  A
C354        H358   1.077       .  S
C355        C356   1.398       .  A
C355        C607   1.483       .  S
C360        C361   1.406       .  A
C360        C365   1.402       .  A
C360        C576   1.490       .  S
C361        C362   1.416       .  A
C361        H366   1.079       .  S
C362        C363   1.418       .  A
C362        C371   1.513       .  S
C363        C364   1.404       .  A
C363        H367   1.080       .  S
C364        C365   1.400       .  A
C364        C596   1.484       .  S
C365        H368   1.084       .  S
C369        C370   1.403       .  A
C369        C374   1.399       .  A
C370        C371   1.415       .  A
C370        H375   1.079       .  S
C371        C372   1.415       .  A
C372        C373   1.411       .  A
C372        H376   1.078       .  S
C373        C374   1.406       .  A
C373        C556   1.503       .  S
C378        C379   1.399       .  A
C378        C383   1.407       .  A
C378        C507   1.488       .  S
C379        C380   1.397       .  A
C379        H384   1.084       .  S
C380        C381   1.402       .  A
C380        C496   1.484       .  S
C381        C382   1.419       .  A
C381        H385   1.080       .  S
C382        C383   1.419       .  A
C382        C389   1.515       .  S
C383        H386   1.076       .  S
C387        C388   1.404       .  A
C387        C392   1.399       .  A
C388        C389   1.416       .  A
C388        H393   1.077       .  S
C389        C390   1.416       .  A
C390        C391   1.408       .  A
C390        H394   1.078       .  S
C391        C392   1.403       .  A
C391        C456   1.499       .  S
O396       Mn422   2.077       .  S
O396       C1787   1.269   1_455  A
C397        C667   1.492       .  S
C397        O430   1.272       .  A
C397        O427   1.274       .  A
O398       Mn405   2.172       .  S
O398       Mn416   2.119       .  S
O398       Mn420   2.163       .  S
O398      Mn1786   2.134       .  S
O399       Mn433   2.102       .  S
O399        C409   1.274       .  A
O400       Mn416   2.106       .  S
O400        C423   1.275       .  A
O401       Mn420   2.099       .  S
O401        C428   1.251       .  A
O402      Mn1115   1.967       .  S
O402       Mn422   1.968       .  S
O402        C418   1.220       .  S
C403        C447   1.474       .  S
C403        O406   1.254       .  A
C403        O429   1.220       .  S
O404      Mn1106   2.120       .  S
O404       Mn405   2.170       .  S
O404       Mn438   2.134       .  S
O404       Mn420   2.167       .  S
Mn405      O1116   2.126       .  S
Mn405       O410   2.099       .  S
Mn405      O1801   2.115       .  S
Mn405      O2457   2.164       .  S
O406      Mn1102   2.104   1_545  S
O407       Mn414   2.085       .  S
O407        C409   1.271       .  A
C408        C487   1.488       .  S
C408        O434   1.254       .  A
C408        O421   1.220       .  S
C409        C627   1.489       .  S
O410        C435   1.253       .  A
O411      Mn2451   2.166   1_445  S
O411       Mn414   2.135       .  S
O411       Mn433   2.120       .  S
O411      Mn2466   2.168   1_445  S
O412       Mn416   1.971       .  S
O412       Mn438   1.955       .  S
O412        C435   1.220       .  S
C413        C527   1.491       .  S
C413       O1121   1.274       .  A
C413        O415   1.270       .  A
Mn414       O427   2.106       .  S
Mn414      O1793   1.968   1_455  S
Mn414      O1785   1.954   1_455  S
O415       Mn438   2.087       .  S
Mn416       O432   2.078       .  S
Mn416       O426   1.956       .  S
O417       Mn422   2.104       .  S
O417       C1783   1.274   1_455  A
C418        C547   1.475       .  S
C418        O436   1.252       .  A
C419        C516   1.488       .  S
C419       O1781   1.274       .  A
C419        O432   1.269       .  A
Mn420      O1088   2.101       .  S
Mn420      O1800   2.099       .  S
Mn420      O2457   2.158       .  S
O421      Mn1778   1.954       .  S
O421       Mn424   1.970       .  S
Mn422      O1762   2.134   1_455  S
Mn422       O440   1.947       .  S
C423        C476   1.487       .  S
C423       O1760   1.269       .  A
Mn424       O431   2.084   1_545  S
Mn424       O439   2.118   1_545  S
Mn424      O1086   2.121   1_545  S
Mn424       O429   1.968       .  S
C425        C567   1.488       .  S
C425       O1113   1.272       .  A
C425        O441   1.273       .  A
O426       Mn438   1.958       .  S
O426        C428   1.217       .  S
C428        C616   1.478       .  S
O429      Mn1778   1.969       .  S
O430       Mn433   2.093       .  S
O431       C1107   1.270       .  A
Mn433      O1084   1.976   1_545  S
Mn433      O1122   1.956   1_545  S
O434      Mn1087   2.106   1_545  S
C435        C656   1.480       .  S
O436      Mn1784   2.099   1_455  S
O437      Mn1769   2.115   1_455  S
O437        C442   1.255       .  A
Mn438       O441   2.101       .  S
O439       C1095   1.277       .  A
O440      Mn1115   1.972       .  S
O440        C442   1.219       .  S
C442        C587   1.489       .  S
C443        C444   1.408       .  A
C443        C448   1.393       .  A
C443        H453   1.082       .  S
C444       C1809   1.416       .  A
C444        C449   1.500       .  S
C445       C1808   1.416   1_455  A
C445        C446   1.404       .  A
C445        F450   1.357       .  S
C446       C1811   1.403   1_455  A
C446        H451   1.083       .  S
C447       C1810   1.403       .  A
C447        C448   1.402       .  A
C448        F452   1.356       .  S
C449        C454   1.412       .  A
C449        C458   1.408       .  A
C454        C455   1.395       .  A
C454        F459   1.358       .  S
C455        H460   1.081       .  S
C456        C457   1.413       .  A
C457        F461   1.357       .  S
C463       C1828   1.406       .  A
C463        C468   1.399       .  A
C463        H473   1.083       .  S
C464       C1827   1.406       .  A
C464        C465   1.408       .  A
C464        C469   1.487       .  S
C465        C466   1.398   1_556  A
C465        F470   1.357       .  S
C466        C467   1.404       .  A
C467       C1832   1.407   1_554  A
C468       C1831   1.407   1_556  A
C468        F472   1.358       .  S
C469       C1838   1.406       .  A
C469        C478   1.406       .  A
C474       C1833   1.406       .  A
C474        C475   1.397       .  A
C474        F479   1.358       .  S
C475       C1840   1.410   1_455  A
C475        H480   1.083       .  S
C476       C1839   1.410       .  A
C476        C477   1.408       .  A
C477        C478   1.398       .  A
C477        F481   1.357       .  S
C478        H482   1.083       .  S
C483       C1848   1.404       .  A
C483        C488   1.395       .  A
C483        H493   1.083       .  S
C484       C1847   1.405       .  A
C484        C485   1.409       .  A
C484        C489   1.492       .  S
C485        C486   1.404       .  A
C485        F490   1.357       .  S
C486        C487   1.407       .  A
C486        H491   1.083       .  S
C487       C1852   1.410       .  A
C488       C1851   1.410       .  A
C488        F492   1.358       .  S
C489        C494   1.409       .  A
C489        C498   1.409       .  A
C494        C495   1.395       .  A
C494        F499   1.357       .  S
C495        C496   1.402       .  A
C495        H500   1.084       .  S
C496        C497   1.407       .  A
C497        C498   1.405       .  A
C497        F501   1.357       .  S
C498        H502   1.083       .  S
C503        C504   1.407       .  A
C503        C508   1.401       .  A
C503        H513   1.083       .  S
C504       C1869   1.406       .  A
C504        C509   1.486       .  S
C505       C1868   1.406   1_455  A
C505        C506   1.397       .  A
C505        F510   1.357       .  S
C506       C1871   1.406   1_455  A
C506        H511   1.083       .  S
C507       C1870   1.406       .  A
C507        C508   1.407       .  A
C508        F512   1.357       .  S
C509        C514   1.408       .  A
C509        C518   1.402       .  A
C514        C515   1.401       .  A
C514       F1883   1.357       .  S
C515        C516   1.407       .  A
C515       H1884   1.083       .  S
C516        C517   1.413       .  A
C517        C518   1.396       .  A
C517        F521   1.358       .  S
C518        H522   1.083       .  S
F519       C1878   1.357       .  S
H520       C1879   1.083       .  S
C523        C524   1.403       .  A
C523        C528   1.400       .  A
C523        H533   1.083       .  S
C524       C1207   1.408       .  A
C524        C529   1.488       .  S
C525       C1206   1.408       .  A
C525        C526   1.403       .  A
C525        F530   1.357   1_565  S
C526       C1209   1.408       .  A
C526        H531   1.082   1_565  S
C527       C1208   1.407       .  A
C527        C528   1.413       .  A
C528        F532   1.356       .  S
C529        C534   1.409       .  A
C529        C538   1.404       .  A
C534        C535   1.402       .  A
C534        F539   1.357       .  S
C535        C536   1.405   1_556  A
C535        H540   1.083       .  S
C537        F541   1.358       .  S
C543        C544   1.410       .  A
C543        C548   1.402       .  A
C543        H553   1.082       .  S
C544       C1227   1.412       .  A
C544        C549   1.498       .  S
C545       C1226   1.414   1_545  A
C545        C546   1.397       .  A
C545        F550   1.357       .  S
C546       C1229   1.399   1_545  A
C546        H551   1.081       .  S
C547       C1228   1.400       .  A
C547        C548   1.404       .  A
C548        F552   1.357       .  S
C549        C554   1.410       .  A
C549        C558   1.406       .  A
C555        C556   1.411       .  A
C555        H560   1.082       .  S
C557        C558   1.396       .  A
C557       F1243   1.357       .  S
C558       H1244   1.082       .  S
F561       C1239   1.357       .  S
H562       C1240   1.081       .  S
C563        C564   1.406       .  A
C563        C568   1.401       .  A
C563        H573   1.083       .  S
C564        C565   1.406       .  A
C564        C569   1.488       .  S
C565        C566   1.398       .  A
C565       F1252   1.358       .  S
C566        C567   1.408       .  A
C566       H1253   1.083       .  S
C567        C568   1.410       .  A
C568        F572   1.357       .  S
C569        C574   1.406       .  A
C569        C578   1.406       .  A
F570       C1247   1.358   1_545  S
H571       C1248   1.084   1_545  S
C574        C575   1.400       .  A
C574        F579   1.357       .  S
C575        C576   1.407       .  A
C575        H580   1.083       .  S
C576        C577   1.408       .  A
C577        C578   1.400       .  A
C577        F581   1.357       .  S
C578        H582   1.083       .  S
C583        C584   1.402       .  A
C583        C588   1.396       .  A
C583        H593   1.083       .  S
C584        C585   1.407       .  A
C584        C589   1.487       .  S
C585        C586   1.406       .  A
C585       F1272   1.357       .  S
C586        C587   1.408       .  A
C586       H1273   1.083       .  S
C587        C588   1.412       .  A
C588        F592   1.358       .  S
C589        C594   1.407       .  A
C589        C598   1.407       .  A
F590       C1267   1.357       .  S
H591       C1268   1.083       .  S
C594        C595   1.397       .  A
C594        F599   1.358       .  S
C595        C596   1.403       .  A
C595        H600   1.084       .  S
C596        C597   1.407       .  A
C597        C598   1.405       .  A
C597        F601   1.357       .  S
C598        H602   1.083       .  S
C603        C604   1.401       .  A
C604        C605   1.403       .  A
C604        C609   1.473       .  S
C605        C606   1.394       .  A
C605        F610   1.358       .  S
C606        H611   1.083       .  S
C607        C608   1.410       .  A
C608        F612   1.357       .  S
C609        C614   1.404       .  A
C609        C618   1.399       .  A
C614        C615   1.400       .  A
C614        F619   1.357       .  S
C615        C616   1.406       .  A
C615        H620   1.083       .  S
C616        C617   1.411       .  A
C617        C618   1.392       .  A
C617        F621   1.358       .  S
C618        H622   1.084       .  S
C623        C624   1.404       .  A
C623        C628   1.398       .  A
C623        H633   1.083       .  S
C624        C625   1.405       .  A
C624        C629   1.484       .  S
C625        C626   1.398       .  A
C625        F630   1.358       .  S
C626        C627   1.410       .  A
C626        H631   1.083       .  S
C627        C628   1.410       .  A
C628        F632   1.355       .  S
C629        C634   1.407       .  A
C629        C638   1.404       .  A
C634        C635   1.399   1_556  A
C634        F639   1.357   1_556  S
C635        C636   1.404       .  A
C635        H640   1.083       .  S
C636        C637   1.409   1_554  A
C637        C638   1.398       .  A
C637        F641   1.358       .  S
C638        H642   1.083       .  S
C643        C644   1.403       .  A
C643        C648   1.400       .  A
C643        H653   1.083       .  S
C644        C645   1.402       .  A
C644        C649   1.474       .  S
C645        C646   1.398       .  A
C645        F650   1.358       .  S
C646        C647   1.406       .  A
C646        H651   1.083       .  S
C647        C648   1.407       .  A
C648        F652   1.357       .  S
C649        C654   1.403       .  A
C649        C658   1.400       .  A
C654        C655   1.401       .  A
C654        F659   1.357       .  S
C655        C656   1.407       .  A
C655        H660   1.083       .  S
C656        C657   1.410       .  A
C657        C658   1.396       .  A
C657        F661   1.358       .  S
C658        H662   1.083       .  S
C663        C664   1.403       .  A
C663        C668   1.398       .  A
C663        H673   1.083       .  S
C664        C665   1.408       .  A
C664        C669   1.488       .  S
C665        C666   1.403       .  A
C665        F670   1.357       .  S
C666        C667   1.409       .  A
C666        H671   1.083       .  S
C667        C668   1.413       .  A
C668        F672   1.357       .  S
C669        C674   1.408       .  A
C669        C678   1.405       .  A
C674        C675   1.399       .  A
C674        F679   1.358       .  S
C675        C676   1.405       .  A
C675        H680   1.083       .  S
C676        C677   1.409       .  A
C677        C678   1.402       .  A
C677        F681   1.357       .  S
C678        H682   1.083       .  S
C683        C684   1.406       .  A
C683        C688   1.402       .  A
C683       C1017   1.487       .  S
C684        C685   1.415       .  A
C684        H689   1.080       .  S
C685        C686   1.414       .  A
C685        C694   1.510       .  S
C686        C687   1.404       .  A
C686        H690   1.080       .  S
C687        C688   1.402       .  A
C687        C988   1.488       .  S
C688        H691   1.083       .  S
C692        C693   1.408       .  A
C692        C697   1.402       .  A
C692       C1318   1.490       .  S
C693        C694   1.416       .  A
C693        H698   1.080       .  S
C694        C695   1.415       .  A
C695        C696   1.402       .  A
C695        H699   1.079       .  S
C696        C697   1.400       .  A
C696        C948   1.485       .  S
C697       H1041   1.083   1_554  S
H700       C1038   1.083       .  S
C701        C702   1.403       .  A
C701        C706   1.399       .  A
C701        C917   1.481       .  S
C702        C703   1.416       .  A
C702        H707   1.079       .  S
C703        C704   1.417       .  A
C703        C712   1.512       .  S
C704        C705   1.405       .  A
C704        H708   1.080       .  S
C705        C706   1.399       .  A
C705        C937   1.481       .  S
C706        H709   1.084       .  S
C710        C711   1.404       .  A
C710        C715   1.401       .  A
C710       C1218   1.495       .  S
C711        C712   1.415       .  A
C711        H716   1.079       .  S
C712        C713   1.416       .  A
C713        C714   1.410       .  A
C713        H717   1.079       .  S
C714        C715   1.406       .  A
C714        C897   1.503       .  S
C715       H1059   1.080   1_554  S
H718       C1056   1.080       .  S
C719        C720   1.401       .  A
C719        C724   1.406       .  A
C719        C848   1.492       .  S
C720        C721   1.402       .  A
C720        H725   1.083       .  S
C721        C722   1.407       .  A
C721        C837   1.491       .  S
C722        C723   1.421       .  A
C722        H726   1.084       .  S
C723        C724   1.419       .  A
C723        C730   1.526       .  S
C724        H727   1.071       .  S
C728        C729   1.404       .  A
C728        C733   1.399       .  A
C728       C1149   1.493       .  S
C729        C730   1.420       .  A
C729        H734   1.072       .  S
C730        C731   1.419       .  A
C731        C732   1.411       .  A
C731        H735   1.082       .  S
C732        C733   1.406       .  A
C732        C797   1.505       .  S
C733       H1077   1.080   1_554  S
H736       C1074   1.080       .  S
O737       Mn763   2.090       .  S
O737       C2128   1.272   1_455  A
C738       C1008   1.489       .  S
C738        O771   1.270       .  A
C738        O768   1.275       .  A
O739       Mn746   2.167       .  S
O739       Mn757   2.120       .  S
O739       Mn761   2.163       .  S
O739      Mn2127   2.131       .  S
O740       Mn774   2.116       .  S
O740        C750   1.277       .  A
O741       Mn757   2.105       .  S
O741        C764   1.274       .  A
O742       Mn761   2.111       .  S
O742        C769   1.254       .  A
O743       Mn763   1.972       .  S
O743        C759   1.220       .  S
C744        C788   1.475       .  S
C744        O747   1.253       .  A
C744        O770   1.220       .  S
O745       Mn746   2.171       .  S
O745       Mn779   2.133       .  S
O745       Mn761   2.162       .  S
Mn746       O751   2.104       .  S
Mn746      O2142   2.116       .  S
Mn746      O1434   2.166   1_565  S
O748       Mn755   2.087       .  S
O748        C750   1.271       .  A
C749        C828   1.491       .  S
C749        O775   1.256       .  A
C749        O762   1.217       .  S
C750        C968   1.495       .  S
O751        C776   1.253       .  A
O752      Mn1428   2.164   1_455  S
O752       Mn755   2.131       .  S
O752       Mn774   2.123       .  S
O752      Mn1443   2.158   1_455  S
O753       Mn757   1.965       .  S
O753       Mn779   1.954       .  S
O753        C776   1.219       .  S
C754        C868   1.497       .  S
C754        O756   1.271       .  A
Mn755       O768   2.106       .  S
Mn755      O2134   1.977   1_455  S
Mn755      O2126   1.948   1_455  S
O756       Mn779   2.091       .  S
Mn757       O773   2.098       .  S
Mn757       O767   1.968       .  S
O758       Mn763   2.099       .  S
O758       C2124   1.273   1_455  A
C759        C888   1.476       .  S
C759        O777   1.251       .  A
C760        C857   1.492       .  S
C760       O2122   1.273       .  A
C760        O773   1.273       .  A
Mn761      O2141   2.095       .  S
Mn761      O1434   2.167   1_565  S
O762      Mn2119   1.948       .  S
O762       Mn765   1.957       .  S
Mn763      O2103   2.131   1_455  S
Mn763       O781   1.944       .  S
C764        C817   1.492       .  S
C764       O2101   1.272       .  A
Mn765       O772   2.089       .  S
Mn765       O780   2.109       .  S
Mn765       O770   1.974       .  S
C766        C908   1.481       .  S
C766        O782   1.272       .  A
O767       Mn779   1.961       .  S
O767        C769   1.219       .  S
C769        C957   1.488       .  S
O770      Mn2119   1.977       .  S
O771       Mn774   2.084       .  S
C776        C997   1.484       .  S
O777      Mn2125   2.095   1_455  S
O778      Mn2110   2.115   1_455  S
O778        C783   1.254       .  A
Mn779       O782   2.095       .  S
O781        C783   1.216       .  S
C783        C928   1.482       .  S
C784        C785   1.407       .  A
C784        C789   1.394       .  A
C784        H794   1.082       .  S
C785       C2150   1.415       .  A
C785        C790   1.498       .  S
C786       C2149   1.415   1_455  A
C786        C787   1.403       .  A
C786        F791   1.357       .  S
C787       C2152   1.402   1_455  A
C787        H792   1.083       .  S
C788       C2151   1.402       .  A
C788        C789   1.403       .  A
C789        F793   1.355       .  S
C790        C795   1.411       .  A
C790        C799   1.406       .  A
C795        C796   1.396       .  A
C795        F800   1.358       .  S
C796       C1138   1.409       .  A
C796        H801   1.081       .  S
C797       C1137   1.409   1_554  A
C797        C798   1.414       .  A
C798       C1140   1.402   1_554  A
C798        F802   1.356       .  S
C799       C1139   1.402       .  A
C799       H1144   1.082       .  S
H803       C1140   1.082   1_554  S
C804       C2169   1.406       .  A
C804        C809   1.401       .  A
C804        H814   1.083       .  S
C805       C2168   1.405       .  A
C805        C806   1.408       .  A
C805        C810   1.489       .  S
C806        C807   1.401       .  A
C806        F811   1.358       .  S
C807        C808   1.407       .  A
C807       H1153   1.083       .  S
C808       C2173   1.409       .  A
C808       C1069   1.492       .  S
C809       C2172   1.409       .  A
C809        F813   1.357       .  S
C810       C2179   1.406       .  A
C810        C819   1.405       .  A
H812       C1148   1.083       .  S
C815       C2174   1.406       .  A
C815        C816   1.400       .  A
C815        F820   1.358       .  S
C816       C2181   1.410   1_455  A
C816        H821   1.083       .  S
C817       C2180   1.410       .  A
C817        C818   1.411       .  A
C818        C819   1.400       .  A
C818        F822   1.357       .  S
C819        H823   1.083       .  S
C824       C2189   1.404       .  A
C824        C829   1.396       .  A
C824        H834   1.083       .  S
C825       C2188   1.404       .  A
C825        C826   1.412       .  A
C825        C830   1.497       .  S
C826        C827   1.406       .  A
C826        F831   1.357       .  S
C827        C828   1.406       .  A
C827        H832   1.083       .  S
C828       C2193   1.412       .  A
C829       C2192   1.412       .  A
C829        F833   1.358       .  S
C830        C835   1.411       .  A
C830        C839   1.408       .  A
C835        C836   1.400       .  A
C835        F840   1.358       .  S
C836        C837   1.405       .  A
C836        H841   1.084       .  S
C837        C838   1.407       .  A
C838        C839   1.403       .  A
C838        F842   1.357       .  S
C839        H843   1.083       .  S
C844        C845   1.404       .  A
C844        C849   1.400       .  A
C844        H854   1.083       .  S
C845       C2210   1.408       .  A
C845        C850   1.488       .  S
C846       C2209   1.408       .  A
C846        C847   1.401       .  A
C846        F851   1.358       .  S
C847       C2212   1.407       .  A
C847        H852   1.083       .  S
C848       C2211   1.407       .  A
C848        C849   1.409       .  A
C849        F853   1.357       .  S
C850        C855   1.406       .  A
C850        C859   1.404       .  A
C855        C856   1.401       .  A
C855       F2224   1.357       .  S
C856        C857   1.410       .  A
C856       H2225   1.083       .  S
C857        C858   1.412       .  A
C858        C859   1.400       .  A
C858        F862   1.358       .  S
C859        H863   1.083       .  S
F860       C2219   1.357       .  S
H861       C2220   1.083       .  S
C864        C865   1.403       .  A
C864        C869   1.401       .  A
C864        H874   1.083       .  S
C865        C870   1.492       .  S
C866        C867   1.401       .  A
C866        F871   1.358       .  S
C867        H872   1.083       .  S
C868        C869   1.415       .  A
C869        F873   1.357       .  S
C870        C875   1.409       .  A
C870        C879   1.405       .  A
C875        C876   1.401       .  A
C875        F880   1.357       .  S
C876        C877   1.406       .  A
C876        H881   1.083       .  S
C877       C1219   1.411       .  A
C877       C1051   1.494       .  S
C878       C1218   1.411       .  A
C878       C1220   1.402   1_554  A
C878        F882   1.358       .  S
C879       C1219   1.401       .  A
C879       H1224   1.083       .  S
H883       C1220   1.083   1_554  S
C884        C885   1.411       .  A
C884        C889   1.402       .  A
C884        H894   1.082       .  S
C885        C890   1.502       .  S
C886        C887   1.396       .  A
C886        F891   1.357       .  S
C887        H892   1.082       .  S
C888        C889   1.404       .  A
C889        F893   1.357       .  S
C890        C895   1.411       .  A
C890        C899   1.406       .  A
C895       C1237   1.404       .  A
C895       F1241   1.357       .  S
C896       C1236   1.403       .  A
C896        C897   1.410       .  A
C896        H901   1.082       .  S
C897       C1239   1.412   1_554  A
C898       C1238   1.413       .  A
C898        C899   1.397       .  A
F900       C1236   1.357       .  S
C904        C905   1.406       .  A
C904        C909   1.399       .  A
C904        H914   1.083       .  S
C905        C906   1.407       .  A
C905        C910   1.486       .  S
C906        C907   1.397       .  A
C907        C908   1.407       .  A
C908        C909   1.408       .  A
C909        F913   1.358       .  S
C910        C915   1.407       .  A
C910        C919   1.407       .  A
C915        C916   1.399       .  A
C915        F920   1.357       .  S
C916        C917   1.404       .  A
C916        H921   1.083       .  S
C917        C918   1.405       .  A
C918        C919   1.399       .  A
C918        F922   1.358   1_565  S
C919        H923   1.083   1_565  S
C924        C925   1.402       .  A
C924        C929   1.393       .  A
C924        H934   1.083       .  S
C925        C926   1.409       .  A
C925        C930   1.487       .  S
C926        C927   1.404       .  A
C927        C928   1.405       .  A
C928        C929   1.410       .  A
C929        F933   1.358   1_565  S
C930        C935   1.408       .  A
C930        C939   1.407       .  A
C935        C936   1.396       .  A
C935        F940   1.358   1_565  S
C936        C937   1.402       .  A
C936        H941   1.084   1_565  S
C937        C938   1.406       .  A
C938        C939   1.402       .  A
C938        F942   1.357       .  S
C939        H943   1.083       .  S
C944        C945   1.405       .  A
C944       C1290   1.404       .  A
C944       H1295   1.083       .  S
C945        C946   1.407       .  A
C945        C950   1.484       .  S
C946        C947   1.396       .  A
C946        F951   1.358       .  S
C947       C1289   1.403       .  A
C947        H952   1.083       .  S
C948       C1288   1.404   1_554  A
C948        C949   1.409       .  A
C949       C1285   1.403   1_554  A
C949        F953   1.357       .  S
C950        C955   1.407       .  A
C950        C959   1.400       .  A
H954       C1285   1.083   1_554  S
C955        C956   1.406       .  A
C955        F960   1.357       .  S
C956        C957   1.408       .  A
C956        H961   1.083       .  S
C957        C958   1.411       .  A
C958        C959   1.393       .  A
C958        F962   1.358       .  S
C959        H963   1.084       .  S
C964        C965   1.405       .  A
C964        C969   1.401       .  A
C964        H974   1.083       .  S
C965        C966   1.406       .  A
C965        C970   1.490       .  S
C966        C967   1.400       .  A
C966        F971   1.358       .  S
C967        C968   1.411       .  A
C967        H972   1.083       .  S
C968        C969   1.410       .  A
C969        F973   1.354       .  S
C970        C975   1.408       .  A
C970        C979   1.406       .  A
C975        C976   1.401       .  A
C975        F980   1.357       .  S
C976        C977   1.407       .  A
C976        H981   1.083       .  S
C977        C978   1.409       .  A
C977       C1033   1.491       .  S
C978        C979   1.400       .  A
C978        F982   1.358       .  S
C979        H983   1.083       .  S
C984        C985   1.405       .  A
C984        C989   1.398       .  A
C984        H994   1.083       .  S
C985        C986   1.404       .  A
C985        C990   1.481       .  S
C986        C987   1.399       .  A
C986        F991   1.357       .  S
C987        C988   1.408       .  A
C987        H992   1.083       .  S
C988        C989   1.408       .  A
C989        F993   1.357       .  S
C990        C995   1.407       .  A
C990        C999   1.401       .  A
C995        C996   1.403       .  A
C995       F1000   1.357       .  S
C996        C997   1.407       .  A
C996       H1001   1.083       .  S
C997        C998   1.410       .  A
C998        C999   1.395       .  A
C998       F1002   1.358       .  S
C999       H1003   1.083       .  S
C1004      C1005   1.404       .  A
C1004      C1009   1.398       .  A
C1004      H1014   1.083       .  S
C1005      C1006   1.409       .  A
C1005      C1010   1.489       .  S
C1006      C1007   1.401       .  A
C1006      F1011   1.357       .  S
C1007      C1008   1.407       .  A
C1007      H1012   1.083       .  S
C1008      C1009   1.413       .  A
C1009      F1013   1.358       .  S
C1010      C1015   1.409       .  A
C1010      C1019   1.405       .  A
C1015      C1016   1.399       .  A
C1015      F1020   1.358       .  S
C1016      C1017   1.405       .  A
C1016      H1021   1.083       .  S
C1017      C1018   1.408       .  A
C1018      C1019   1.401       .  A
C1018      F1022   1.357       .  S
C1019      H1023   1.083       .  S
C1024      C1025   1.406       .  A
C1024      C1029   1.402       .  A
C1024      C1358   1.486       .  S
C1025      C1026   1.415       .  A
C1025      H1030   1.080       .  S
C1026      C1027   1.414       .  A
C1026      C1035   1.510       .  S
C1027      C1028   1.404       .  A
C1027      H1031   1.079       .  S
C1028      C1029   1.402       .  A
C1028      C1329   1.488       .  S
C1029      H1032   1.083       .  S
C1033      C1034   1.407       .  A
C1033      C1038   1.403       .  A
C1034      C1035   1.416       .  A
C1034      H1039   1.080       .  S
C1035      C1036   1.415       .  A
C1036      C1037   1.402       .  A
C1036      H1040   1.079       .  S
C1037      C1038   1.401       .  A
C1037      C1289   1.486       .  S
C1042      C1043   1.403       .  A
C1042      C1047   1.399       .  A
C1042      C1258   1.481       .  S
C1043      C1044   1.417       .  A
C1043      H1048   1.079       .  S
C1044      C1045   1.416       .  A
C1044      C1053   1.512       .  S
C1045      C1046   1.405       .  A
C1045      H1049   1.080       .  S
C1046      C1047   1.399       .  A
C1046      C1278   1.479       .  S
C1047      H1050   1.084       .  S
C1051      C1052   1.403       .  A
C1051      C1056   1.402       .  A
C1052      C1053   1.414       .  A
C1052      H1057   1.079       .  S
C1053      C1054   1.417       .  A
C1054      C1055   1.411       .  A
C1054      H1058   1.079       .  S
C1055      C1056   1.407       .  A
C1055      C1238   1.505       .  S
C1060      C1061   1.401       .  A
C1060      C1065   1.405       .  A
C1060      C1189   1.492       .  S
C1061      C1062   1.401       .  A
C1061      H1066   1.084       .  S
C1062      C1063   1.408       .  A
C1062      C1178   1.492       .  S
C1063      C1064   1.422       .  A
C1063      H1067   1.080       .  S
C1064      C1065   1.418       .  A
C1064      C1071   1.525       .  S
C1065      H1068   1.072       .  S
C1069      C1070   1.404       .  A
C1069      C1074   1.399       .  A
C1070      C1071   1.420       .  A
C1070      H1075   1.073       .  S
C1071      C1072   1.418       .  A
C1072      C1073   1.411       .  A
C1072      H1076   1.078       .  S
C1073      C1074   1.406       .  A
C1073      C1138   1.505       .  S
O1078     Mn1104   2.091       .  S
O1078      C2469   1.272   1_455  A
C1079      C1349   1.488       .  S
C1079      O1112   1.270       .  A
C1079      O1109   1.274       .  A
O1080     Mn1087   2.167       .  S
O1080     Mn1098   2.120       .  S
O1080     Mn1102   2.163       .  S
O1080     Mn2468   2.130       .  S
O1081     Mn1115   2.115       .  S
O1081      C1091   1.276       .  A
O1082     Mn1098   2.103       .  S
O1082      C1105   1.274       .  A
O1083     Mn1102   2.113       .  S
O1083      C1110   1.254       .  A
O1084     Mn1104   1.972       .  S
O1084      C1100   1.220       .  S
C1085      C1129   1.475       .  S
C1085      O1088   1.253       .  A
C1085      O1111   1.220       .  S
O1086     Mn1087   2.172       .  S
O1086     Mn1120   2.132       .  S
O1086     Mn1102   2.162       .  S
Mn1087     O1092   2.103       .  S
Mn1087     O2483   2.116       .  S
Mn1087     O1775   2.165   1_565  S
O1089     Mn1096   2.085       .  S
O1089      C1091   1.271       .  A
C1090      C1169   1.493       .  S
C1090      O1116   1.256       .  A
C1090      O1103   1.217       .  S
C1091      C1309   1.493       .  S
O1092      C1117   1.252       .  A
O1093     Mn1769   2.164   1_455  S
O1093     Mn1096   2.133       .  S
O1093     Mn1115   2.122       .  S
O1093     Mn1784   2.157   1_455  S
O1094     Mn1098   1.963       .  S
O1094     Mn1120   1.955       .  S
O1094      C1117   1.218       .  S
C1095      C1209   1.498       .  S
C1095      O1097   1.271       .  A
Mn1096     O1109   2.105       .  S
Mn1096     O2475   1.977   1_455  S
Mn1096     O2467   1.948   1_455  S
O1097     Mn1120   2.094       .  S
Mn1098     O1114   2.094       .  S
Mn1098     O1108   1.964       .  S
O1099     Mn1104   2.100       .  S
O1099      C2465   1.273   1_455  A
C1100      C1229   1.473       .  S
C1100      O1118   1.251       .  A
C1101      C1198   1.491       .  S
C1101      O2463   1.273       .  A
C1101      O1114   1.272       .  A
Mn1102     O2482   2.093       .  S
Mn1102     O1775   2.168   1_565  S
O1103     Mn2460   1.948       .  S
O1103     Mn1106   1.959       .  S
Mn1104     O2444   2.130   1_455  S
Mn1104     O1122   1.945       .  S
C1105      C1158   1.492       .  S
C1105      O2442   1.272       .  A
Mn1106     O1113   2.089       .  S
Mn1106     O1121   2.110       .  S
Mn1106     O1111   1.974       .  S
C1107      C1249   1.480       .  S
C1107      O1123   1.272       .  A
O1108     Mn1120   1.959       .  S
O1108      C1110   1.218       .  S
C1110      C1298   1.486       .  S
O1111     Mn2460   1.976       .  S
O1112     Mn1115   2.083       .  S
C1117      C1338   1.482       .  S
O1118     Mn2466   2.093   1_455  S
O1119     Mn2451   2.115   1_455  S
O1119      C1124   1.254       .  A
Mn1120     O1123   2.095       .  S
O1122      C1124   1.216       .  S
C1124      C1269   1.481       .  S
C1125      C1126   1.407       .  A
C1125      C1130   1.394       .  A
C1125      H1135   1.082       .  S
C1126      C2491   1.415       .  A
C1126      C1131   1.498       .  S
C1127      C2490   1.415   1_455  A
C1127      C1128   1.403       .  A
C1127      F1132   1.357       .  S
C1128      C2493   1.402   1_455  A
C1128      H1133   1.083       .  S
C1129      C2492   1.402       .  A
C1129      C1130   1.403       .  A
C1130      F1134   1.354       .  S
C1131      C1136   1.411       .  A
C1131      C1140   1.406       .  A
C1136      C1137   1.396       .  A
C1136      F1141   1.358       .  S
C1137      H1142   1.082       .  S
C1138      C1139   1.414       .  A
C1139      F1143   1.356       .  S
C1145      C2510   1.405       .  A
C1145      C1150   1.400       .  A
C1145      H1155   1.083       .  S
C1146      C2509   1.405       .  A
C1146      C1147   1.408       .  A
C1146      C1151   1.489       .  S
C1147      C1148   1.401   1_556  A
C1147      F1152   1.358       .  S
C1148      C1149   1.407       .  A
C1149      C2514   1.409   1_554  A
C1150      C2513   1.409   1_556  A
C1150      F1154   1.357       .  S
C1151      C2520   1.407       .  A
C1151      C1160   1.405       .  A
C1156      C2515   1.406       .  A
C1156      C1157   1.400       .  A
C1156      F1161   1.358       .  S
C1157      C2522   1.410   1_455  A
C1157      H1162   1.083       .  S
C1158      C2521   1.410       .  A
C1158      C1159   1.411       .  A
C1159      C1160   1.400       .  A
C1159      F1163   1.357       .  S
C1160      H1164   1.083       .  S
C1165      C2530   1.404       .  A
C1165      C1170   1.397       .  A
C1165      H1175   1.083       .  S
C1166      C2529   1.404       .  A
C1166      C1167   1.412       .  A
C1166      C1171   1.499       .  S
C1167      C1168   1.407       .  A
C1167      F1172   1.357       .  S
C1168      C1169   1.406       .  A
C1168      H1173   1.083       .  S
C1169      C2534   1.412       .  A
C1170      C2533   1.412       .  A
C1170      F1174   1.358       .  S
C1171      C1176   1.411       .  A
C1171      C1180   1.409       .  A
C1176      C1177   1.400       .  A
C1176      F1181   1.357       .  S
C1177      C1178   1.405       .  A
C1177      H1182   1.083       .  S
C1178      C1179   1.408       .  A
C1179      C1180   1.405       .  A
C1179      F1183   1.357       .  S
C1180      H1184   1.083       .  S
C1185      C1186   1.404       .  A
C1185      C1190   1.400       .  A
C1185      H1195   1.083       .  S
C1186      C2551   1.408       .  A
C1186      C1191   1.487       .  S
C1187      C2550   1.408       .  A
C1187      C1188   1.401       .  A
C1187      F1192   1.358       .  S
C1188      C2553   1.406       .  A
C1188      H1193   1.083       .  S
C1189      C2552   1.407       .  A
C1189      C1190   1.410       .  A
C1190      F1194   1.357       .  S
C1191      C1196   1.406       .  A
C1191      C1200   1.404       .  A
C1196      C1197   1.401       .  A
C1196      F2565   1.357       .  S
C1197      C1198   1.409       .  A
C1197      H2566   1.083       .  S
C1198      C1199   1.412       .  A
C1199      C1200   1.399       .  A
C1199      F1203   1.358       .  S
C1200      H1204   1.083       .  S
F1201      C2560   1.357       .  S
H1202      C2561   1.083       .  S
C1205      C1206   1.404       .  A
C1205      C1210   1.401       .  A
C1205      H1215   1.083       .  S
C1206      C1211   1.492       .  S
C1207      C1208   1.401       .  A
C1207      F1212   1.358       .  S
C1208      H1213   1.083       .  S
C1209      C1210   1.415       .  A
C1210      F1214   1.357       .  S
C1211      C1216   1.409       .  A
C1211      C1220   1.405       .  A
C1216      C1217   1.401       .  A
C1216      F1221   1.357       .  S
C1217      C1218   1.407   1_556  A
C1217      H1222   1.083       .  S
C1219      F1223   1.358       .  S
C1225      C1226   1.411       .  A
C1225      C1230   1.401       .  A
C1225      H1235   1.082       .  S
C1226      C1231   1.500       .  S
C1227      C1228   1.396       .  A
C1227      F1232   1.357       .  S
C1228      H1233   1.082       .  S
C1229      C1230   1.403       .  A
C1230      F1234   1.357       .  S
C1231      C1236   1.411   1_556  A
C1231      C1240   1.406       .  A
C1237      C1238   1.410       .  A
C1237      H1242   1.082       .  S
C1239      C1240   1.396       .  A
C1245      C1246   1.406       .  A
C1245      C1250   1.399       .  A
C1245      H1255   1.083       .  S
C1246      C1247   1.407       .  A
C1246      C1251   1.486       .  S
C1247      C1248   1.397       .  A
C1248      C1249   1.406       .  A
C1249      C1250   1.407       .  A
C1250      F1254   1.358       .  S
C1251      C1256   1.408       .  A
C1251      C1260   1.407       .  A
C1256      C1257   1.399       .  A
C1256      F1261   1.358       .  S
C1257      C1258   1.404       .  A
C1257      H1262   1.083       .  S
C1258      C1259   1.405       .  A
C1259      C1260   1.399       .  A
C1259      F1263   1.357   1_565  S
C1260      H1264   1.083   1_565  S
C1265      C1266   1.403       .  A
C1265      C1270   1.393       .  A
C1265      H1275   1.083       .  S
C1266      C1267   1.409       .  A
C1266      C1271   1.486       .  S
C1267      C1268   1.403       .  A
C1268      C1269   1.405       .  A
C1269      C1270   1.410       .  A
C1270      F1274   1.358   1_565  S
C1271      C1276   1.408       .  A
C1271      C1280   1.407       .  A
C1276      C1277   1.396       .  A
C1276      F1281   1.358   1_565  S
C1277      C1278   1.402       .  A
C1277      H1282   1.084   1_565  S
C1278      C1279   1.405       .  A
C1279      C1280   1.402       .  A
C1279      F1283   1.357       .  S
C1280      H1284   1.083       .  S
C1285      C1286   1.404       .  A
C1286      C1287   1.406       .  A
C1286      C1291   1.482       .  S
C1287      C1288   1.395       .  A
C1287      F1292   1.358       .  S
C1288      H1293   1.083       .  S
C1289      C1290   1.410       .  A
C1290      F1294   1.357       .  S
C1291      C1296   1.407       .  A
C1291      C1300   1.400       .  A
C1296      C1297   1.405       .  A
C1296      F1301   1.357       .  S
C1297      C1298   1.408       .  A
C1297      H1302   1.083       .  S
C1298      C1299   1.412       .  A
C1299      C1300   1.392       .  A
C1299      F1303   1.358       .  S
C1300      H1304   1.084       .  S
C1305      C1306   1.405       .  A
C1305      C1310   1.401       .  A
C1305      H1315   1.083       .  S
C1306      C1307   1.406       .  A
C1306      C1311   1.488       .  S
C1307      C1308   1.399       .  A
C1307      F1312   1.358       .  S
C1308      C1309   1.410       .  A
C1308      H1313   1.083       .  S
C1309      C1310   1.410       .  A
C1310      F1314   1.354       .  S
C1311      C1316   1.407       .  A
C1311      C1320   1.405       .  A
C1316      C1317   1.401   1_556  A
C1316      F1321   1.357   1_556  S
C1317      C1318   1.407       .  A
C1317      H1322   1.083       .  S
C1318      C1319   1.409   1_554  A
C1319      C1320   1.399       .  A
C1319      F1323   1.358       .  S
C1320      H1324   1.083       .  S
C1325      C1326   1.404       .  A
C1325      C1330   1.398       .  A
C1325      H1335   1.083       .  S
C1326      C1327   1.404       .  A
C1326      C1331   1.480       .  S
C1327      C1328   1.399       .  A
C1327      F1332   1.357       .  S
C1328      C1329   1.408       .  A
C1328      H1333   1.083       .  S
C1329      C1330   1.408       .  A
C1330      F1334   1.357       .  S
C1331      C1336   1.406       .  A
C1331      C1340   1.401       .  A
C1336      C1337   1.402       .  A
C1336      F1341   1.357       .  S
C1337      C1338   1.406       .  A
C1337      H1342   1.083       .  S
C1338      C1339   1.410       .  A
C1339      C1340   1.394       .  A
C1339      F1343   1.358       .  S
C1340      H1344   1.083       .  S
C1345      C1346   1.403       .  A
C1345      C1350   1.397       .  A
C1345      H1355   1.083       .  S
C1346      C1347   1.409       .  A
C1346      C1351   1.488       .  S
C1347      C1348   1.400       .  A
C1347      F1352   1.357       .  S
C1348      C1349   1.407       .  A
C1348      H1353   1.083       .  S
C1349      C1350   1.413       .  A
C1350      F1354   1.358       .  S
C1351      C1356   1.409       .  A
C1351      C1360   1.405       .  A
C1356      C1357   1.398       .  A
C1356      F1361   1.358       .  S
C1357      C1358   1.404       .  A
C1357      H1362   1.083       .  S
C1358      C1359   1.408       .  A
C1359      C1360   1.400       .  A
C1359      F1363   1.357       .  S
C1360      H1364   1.083       .  S
C1365      C1366   1.407       .  A
C1365      C1370   1.403       .  A
C1365      C1699   1.488       .  S
C1366      C1367   1.415       .  A
C1366      H1371   1.080       .  S
C1367      C1368   1.414       .  A
C1367      C1376   1.509       .  S
C1368      C1369   1.401       .  A
C1368      H1372   1.079       .  S
C1369      C1370   1.401       .  A
C1369      C1670   1.485       .  S
C1370      H1373   1.083       .  S
C1374      C1375   1.407       .  A
C1374      C1379   1.400       .  A
C1374      C2000   1.485       .  S
C1375      C1376   1.417       .  A
C1375      H1380   1.080       .  S
C1376      C1377   1.414       .  A
C1377      C1378   1.401       .  A
C1377      H1381   1.077       .  S
C1378      C1379   1.398       .  A
C1378      C1630   1.484       .  S
C1379      H1723   1.084   1_554  S
H1382      C1720   1.084       .  S
C1383      C1384   1.406       .  A
C1383      C1388   1.401       .  A
C1383      C1599   1.489       .  S
C1384      C1385   1.416       .  A
C1384      H1389   1.079       .  S
C1385      C1386   1.417       .  A
C1385      C1394   1.513       .  S
C1386      C1387   1.404       .  A
C1386      H1390   1.080       .  S
C1387      C1388   1.399       .  A
C1387      C1619   1.482       .  S
C1388      H1391   1.084       .  S
C1392      C1393   1.403       .  A
C1392      C1397   1.399       .  A
C1392      C1900   1.486       .  S
C1393      C1394   1.415       .  A
C1393      H1398   1.079       .  S
C1394      C1395   1.415       .  A
C1395      C1396   1.411       .  A
C1395      H1399   1.078       .  S
C1396      C1397   1.406       .  A
C1396      C1579   1.503       .  S
C1397      H1741   1.081   1_554  S
H1400      C1738   1.080       .  S
C1401      C1402   1.400       .  A
C1401      C1406   1.407       .  A
C1401      C1530   1.489       .  S
C1402      C1403   1.398       .  A
C1402      H1407   1.084       .  S
C1403      C1404   1.402   1_655  A
C1403      C1519   1.483       .  S
C1404      C1405   1.418   1_455  A
C1404      H1408   1.079       .  S
C1405      C1406   1.419       .  A
C1405      C1412   1.516   1_655  S
C1406      H1409   1.079       .  S
C1410      C1411   1.404       .  A
C1410      C1415   1.399       .  A
C1410      C1831   1.485       .  S
C1411      C1412   1.415       .  A
C1411      H1416   1.079       .  S
C1412      C1413   1.417   1_455  A
C1413      C1414   1.408   1_655  A
C1413      H1417   1.078       .  S
C1414      C1415   1.403       .  A
C1414      C1479   1.500   1_455  S
C1415      H1759   1.081   1_554  S
H1418      C1756   1.081       .  S
O1419     Mn1445   2.078       .  S
C1420      C1690   1.491       .  S
C1420      O1453   1.272       .  A
C1420      O1450   1.274       .  A
O1421     Mn1428   2.170       .  S
O1421     Mn1439   2.120       .  S
O1421     Mn1443   2.163       .  S
O1422     Mn1456   2.101       .  S
O1422      C1432   1.274       .  A
O1423     Mn1439   2.102       .  S
O1423      C1446   1.274       .  A
O1424     Mn1443   2.100       .  S
O1424      C1451   1.251       .  A
O1425     Mn2138   1.967       .  S
O1425     Mn1445   1.969       .  S
O1425      C1441   1.220       .  S
C1426      C1470   1.475       .  S
C1426      O1429   1.254       .  A
C1426      O1452   1.220       .  S
O1427     Mn2129   2.120       .  S
O1427     Mn1428   2.171       .  S
O1427     Mn1461   2.133       .  S
O1427     Mn1443   2.167       .  S
Mn1428     O2139   2.124       .  S
Mn1428     O1433   2.098       .  S
O1429     Mn2125   2.104   1_545  S
O1430     Mn1437   2.087       .  S
O1430      C1432   1.271       .  A
C1431      C1510   1.488       .  S
C1431      O1457   1.253       .  A
C1431      O1444   1.221       .  S
C1432      C1650   1.489       .  S
O1433      C1458   1.253       .  A
O1434     Mn1437   2.136       .  S
O1434     Mn1456   2.120       .  S
O1435     Mn1439   1.970       .  S
O1435     Mn1461   1.958       .  S
O1435      C1458   1.220       .  S
C1436      C1550   1.492       .  S
C1436      O2144   1.274       .  A
C1436      O1438   1.270       .  A
Mn1437     O1450   2.105       .  S
O1438     Mn1461   2.089       .  S
Mn1439     O1455   2.077       .  S
Mn1439     O1449   1.954       .  S
O1440     Mn1445   2.105       .  S
C1441      C1570   1.475       .  S
C1441      O1459   1.251       .  A
C1442      C1539   1.489       .  S
C1442      O1455   1.269       .  A
Mn1443     O2111   2.100       .  S
O1444     Mn1447   1.971       .  S
Mn1445     O1463   1.948       .  S
C1446      C1499   1.486       .  S
Mn1447     O1454   2.083   1_545  S
Mn1447     O1462   2.117   1_545  S
Mn1447     O2109   2.122   1_545  S
Mn1447     O1452   1.968       .  S
C1448      C1590   1.487       .  S
C1448      O2136   1.272       .  A
C1448      O1464   1.272       .  A
O1449     Mn1461   1.955       .  S
O1449      C1451   1.217       .  S
C1451      C1639   1.479       .  S
O1453     Mn1456   2.093       .  S
O1454      C2130   1.270       .  A
Mn1456     O2107   1.976   1_545  S
Mn1456     O2145   1.956   1_545  S
O1457     Mn2110   2.104   1_545  S
C1458      C1679   1.480       .  S
O1460      C1465   1.256       .  A
Mn1461     O1464   2.097       .  S
O1462      C2118   1.277       .  A
O1463     Mn2138   1.972       .  S
O1463      C1465   1.219       .  S
C1465      C1610   1.488       .  S
C1466      C1467   1.408       .  A
C1466      C1471   1.393       .  A
C1466      H1476   1.082       .  S
C1467      C1472   1.499       .  S
C1468      C1469   1.404       .  A
C1468      F1473   1.357       .  S
C1469      H1474   1.083       .  S
C1470      C1471   1.402       .  A
C1471      F1475   1.356       .  S
C1472      C1477   1.412       .  A
C1472      C1481   1.407   1_655  A
C1477      C1478   1.395       .  A
C1477      F1482   1.358       .  S
C1478      C1820   1.407   1_655  A
C1478      H1483   1.082       .  S
C1479      C1819   1.407   1_554  A
C1479      C1480   1.412   1_655  A
C1480      C1822   1.402   1_554  A
C1480      F1484   1.357       .  S
C1481      C1821   1.401       .  A
C1481      H1826   1.081       .  S
H1485      C1822   1.081   1_554  S
C1486      C1491   1.398       .  A
C1486      H1496   1.083       .  S
C1487      C1488   1.408   1_455  A
C1487      C1492   1.488       .  S
C1488      C1489   1.398       .  A
C1488      F1493   1.357       .  S
C1489      C1490   1.404   1_655  A
C1489      H1835   1.083       .  S
C1490      C1751   1.484       .  S
C1491      F1495   1.357       .  S
C1492      C1501   1.407   1_455  A
H1494      C1830   1.083       .  S
C1497      C1498   1.396       .  A
C1497      F1502   1.358       .  S
C1498      H1503   1.083       .  S
C1499      C1500   1.408       .  A
C1500      C1501   1.398       .  A
C1500      F1504   1.357       .  S
C1501      H1505   1.083       .  S
C1506      C1511   1.396       .  A
C1506      H1516   1.083       .  S
C1507      C1508   1.408       .  A
C1507      C1512   1.490       .  S
C1508      C1509   1.405       .  A
C1508      F1513   1.357       .  S
C1509      C1510   1.408       .  A
C1509      H1514   1.083       .  S
C1511      F1515   1.358       .  S
C1512      C1517   1.408       .  A
C1512      C1521   1.409   1_655  A
C1517      C1518   1.395       .  A
C1517      F1522   1.357       .  S
C1518      C1519   1.402       .  A
C1518      H1523   1.084       .  S
C1519      C1520   1.407   1_655  A
C1520      C1521   1.405       .  A
C1520      F1524   1.358       .  S
C1521      H1525   1.083       .  S
C1526      C1527   1.407       .  A
C1526      C1531   1.401       .  A
C1526      H1536   1.083       .  S
C1527      C1532   1.486       .  S
C1528      C1529   1.398       .  A
C1528      F1533   1.357       .  S
C1529      H1534   1.083       .  S
C1530      C1531   1.408       .  A
C1531      F1535   1.357       .  S
C1532      C1537   1.408   1_655  A
C1532      C1541   1.402       .  A
C1537      C1538   1.401       .  A
C1538      C1539   1.407   1_455  A
C1539      C1540   1.414       .  A
C1540      C1541   1.396       .  A
C1540      F1544   1.358       .  S
C1541      H1545   1.083       .  S
C1546      C1547   1.403       .  A
C1546      C1551   1.400       .  A
C1546      H1556   1.083       .  S
C1547      C2230   1.409       .  A
C1547      C1552   1.489       .  S
C1548      C2229   1.408       .  A
C1548      C1549   1.402       .  A
C1548      F1553   1.357   1_565  S
C1549      C2232   1.408       .  A
C1549      H1554   1.082   1_565  S
C1550      C2231   1.407       .  A
C1550      C1551   1.413       .  A
C1551      F1555   1.356       .  S
C1552      C1557   1.409       .  A
C1552      C1561   1.404       .  A
C1557      C1558   1.403       .  A
C1557      F1562   1.357       .  S
C1558      C1559   1.405       .  A
C1558      H1563   1.083       .  S
C1559      C1901   1.408       .  A
C1559      C1733   1.487       .  S
C1560      C1900   1.408       .  A
C1560      C1902   1.399   1_554  A
C1560      F1564   1.358       .  S
C1561      C1901   1.399       .  A
C1561      H1906   1.083       .  S
H1565      C1902   1.083       .  S
C1566      C1567   1.410       .  A
C1566      C1571   1.402       .  A
C1566      H1576   1.082       .  S
C1567      C2250   1.412       .  A
C1567      C1572   1.497       .  S
C1568      C2249   1.414   1_545  A
C1568      C1569   1.397       .  A
C1568      F1573   1.357       .  S
C1569      C2252   1.399   1_545  A
C1569      H1574   1.082       .  S
C1570      C2251   1.400       .  A
C1570      C1571   1.404       .  A
C1571      F1575   1.357       .  S
C1572      C1577   1.410       .  A
C1572      C1581   1.406       .  A
C1577      C1919   1.401       .  A
C1577      F1923   1.357       .  S
C1578      C1918   1.402   1_554  A
C1578      C1579   1.410       .  A
C1578      H1583   1.082       .  S
C1579      C1921   1.413   1_554  A
C1580      C1920   1.413       .  A
C1580      C1581   1.396       .  A
C1580      F2266   1.357       .  S
C1581      H2267   1.082       .  S
F1582      C1918   1.357   1_554  S
F1584      C2262   1.357       .  S
H1585      C2263   1.081       .  S
C1586      C1587   1.405       .  A
C1586      C1591   1.400       .  A
C1586      H1596   1.083       .  S
C1587      C1588   1.406       .  A
C1587      C1592   1.487       .  S
C1588      C1589   1.398       .  A
C1588      F2275   1.358       .  S
C1589      C1590   1.408       .  A
C1589      H2276   1.083       .  S
C1590      C1591   1.411       .  A
C1591      F1595   1.358       .  S
C1592      C1597   1.406       .  A
C1592      C1601   1.406       .  A
F1593      C2270   1.358   1_545  S
H1594      C2271   1.084   1_545  S
C1597      C1598   1.400       .  A
C1597      F1602   1.357       .  S
C1598      C1599   1.407       .  A
C1598      H1603   1.083       .  S
C1599      C1600   1.408       .  A
C1600      C1601   1.399       .  A
C1600      F1604   1.357       .  S
C1601      H1605   1.083       .  S
C1606      C1607   1.402       .  A
C1606      C1611   1.396       .  A
C1606      H1616   1.083       .  S
C1607      C1608   1.407       .  A
C1607      C1612   1.486       .  S
C1608      C1609   1.405       .  A
C1608      F2295   1.357       .  S
C1609      C1610   1.407       .  A
C1609      H2296   1.083       .  S
C1610      C1611   1.412       .  A
C1611      F1615   1.358       .  S
C1612      C1617   1.407       .  A
C1612      C1621   1.407       .  A
F1613      C2290   1.357       .  S
H1614      C2291   1.083       .  S
C1617      C1618   1.397       .  A
C1617      F1622   1.358       .  S
C1618      C1619   1.403       .  A
C1618      H1623   1.084       .  S
C1619      C1620   1.406       .  A
C1620      C1621   1.404       .  A
C1620      F1624   1.357       .  S
C1621      H1625   1.083       .  S
C1626      C1627   1.402       .  A
C1626      C1972   1.399       .  A
C1626      H1977   1.083       .  S
C1627      C1628   1.404       .  A
C1627      C1632   1.474       .  S
C1628      C1629   1.393       .  A
C1628      F1633   1.358       .  S
C1629      C1971   1.405       .  A
C1629      H1634   1.083       .  S
C1630      C1970   1.405   1_554  A
C1630      C1631   1.410       .  A
C1631      C1967   1.399   1_554  A
C1631      F1635   1.357       .  S
C1632      C1637   1.404       .  A
C1632      C1641   1.399       .  A
H1636      C1967   1.083       .  S
C1637      C1638   1.401       .  A
C1637      F1642   1.357       .  S
C1638      C1639   1.407       .  A
C1638      H1643   1.083       .  S
C1639      C1640   1.411       .  A
C1640      C1641   1.391       .  A
C1640      F1644   1.358       .  S
C1641      H1645   1.084       .  S
C1646      C1647   1.404       .  A
C1646      C1651   1.398       .  A
C1646      H1656   1.083       .  S
C1647      C1648   1.405       .  A
C1647      C1652   1.485       .  S
C1648      C1649   1.399       .  A
C1648      F1653   1.358       .  S
C1649      C1650   1.410       .  A
C1649      H1654   1.083       .  S
C1650      C1651   1.410       .  A
C1651      F1655   1.355       .  S
C1652      C1657   1.408       .  A
C1652      C1661   1.405       .  A
C1657      C1658   1.399       .  A
C1657      F1662   1.357       .  S
C1658      C1659   1.404       .  A
C1658      H1663   1.083       .  S
C1659      C1660   1.408       .  A
C1659      C1715   1.484       .  S
C1660      C1661   1.398       .  A
C1660      F1664   1.358       .  S
C1661      H1665   1.083       .  S
C1666      C1667   1.403       .  A
C1666      C1671   1.400       .  A
C1666      H1676   1.083       .  S
C1667      C1668   1.402       .  A
C1667      C1672   1.475       .  S
C1668      C1669   1.399       .  A
C1668      F1673   1.357       .  S
C1669      C1670   1.407       .  A
C1669      H1674   1.083       .  S
C1670      C1671   1.407       .  A
C1671      F1675   1.357       .  S
C1672      C1677   1.404       .  A
C1672      C1681   1.400       .  A
C1677      C1678   1.401       .  A
C1677      F1682   1.357       .  S
C1678      C1679   1.407       .  A
C1678      H1683   1.083       .  S
C1679      C1680   1.409       .  A
C1680      C1681   1.396       .  A
C1680      F1684   1.358       .  S
C1681      H1685   1.083       .  S
C1686      C1687   1.402       .  A
C1686      C1691   1.398       .  A
C1686      H1696   1.083       .  S
C1687      C1688   1.407       .  A
C1687      C1692   1.486       .  S
C1688      C1689   1.403       .  A
C1688      F1693   1.357       .  S
C1689      C1690   1.409       .  A
C1689      H1694   1.083       .  S
C1690      C1691   1.412       .  A
C1691      F1695   1.357       .  S
C1692      C1697   1.407       .  A
C1692      C1701   1.404       .  A
C1697      C1698   1.399       .  A
C1697      F1702   1.358       .  S
C1698      C1699   1.405       .  A
C1698      H1703   1.083       .  S
C1699      C1700   1.409       .  A
C1700      C1701   1.402       .  A
C1700      F1704   1.357       .  S
C1701      H1705   1.083       .  S
C1706      C1707   1.407       .  A
C1706      C1711   1.404       .  A
C1706      C2040   1.489       .  S
C1707      C1708   1.414       .  A
C1707      H1712   1.080       .  S
C1708      C1709   1.414       .  A
C1708      C1717   1.508       .  S
C1709      C1710   1.400       .  A
C1709      H1713   1.079       .  S
C1710      C1711   1.401       .  A
C1710      C2011   1.484       .  S
C1711      H1714   1.083       .  S
C1715      C1716   1.406       .  A
C1715      C1720   1.399       .  A
C1716      C1717   1.416       .  A
C1716      H1721   1.080       .  S
C1717      C1718   1.414       .  A
C1718      C1719   1.401       .  A
C1718      H1722   1.078       .  S
C1719      C1720   1.398       .  A
C1719      C1971   1.483       .  S
C1724      C1725   1.406       .  A
C1724      C1729   1.402       .  A
C1724      C1940   1.490       .  S
C1725      C1726   1.416       .  A
C1725      H1730   1.079       .  S
C1726      C1727   1.418       .  A
C1726      C1735   1.514       .  S
C1727      C1728   1.404       .  A
C1727      H1731   1.080       .  S
C1728      C1729   1.400       .  A
C1728      C1960   1.484       .  S
C1729      H1732   1.084       .  S
C1733      C1734   1.404       .  A
C1733      C1738   1.399       .  A
C1734      C1735   1.416       .  A
C1734      H1739   1.079       .  S
C1735      C1736   1.415       .  A
C1736      C1737   1.411       .  A
C1736      H1740   1.078       .  S
C1737      C1738   1.406       .  A
C1737      C1920   1.502       .  S
C1742      C1743   1.399       .  A
C1742      C1747   1.407       .  A
C1742      C1871   1.488       .  S
C1743      C1744   1.397       .  A
C1743      H1748   1.084       .  S
C1744      C1745   1.402   1_655  A
C1744      C1860   1.484       .  S
C1745      C1746   1.420   1_455  A
C1745      H1749   1.080       .  S
C1746      C1747   1.419       .  A
C1746      C1753   1.516   1_655  S
C1747      H1750   1.077       .  S
C1751      C1752   1.404       .  A
C1751      C1756   1.399       .  A
C1752      C1753   1.416       .  A
C1752      H1757   1.078       .  S
C1753      C1754   1.416   1_455  A
C1754      C1755   1.408   1_655  A
C1754      H1758   1.079       .  S
C1755      C1756   1.403       .  A
C1755      C1820   1.500       .  S
O1760     Mn1786   2.077       .  S
C1761      C2031   1.493       .  S
C1761      O1794   1.272       .  A
C1761      O1791   1.274       .  A
O1762     Mn1769   2.171       .  S
O1762     Mn1780   2.120       .  S
O1762     Mn1784   2.163       .  S
O1763     Mn1797   2.103       .  S
O1763      C1773   1.274       .  A
O1764     Mn1780   2.106       .  S
O1764      C1787   1.275       .  A
O1765     Mn1784   2.099       .  S
O1765      C1792   1.251       .  A
O1766     Mn2479   1.967       .  S
O1766     Mn1786   1.968       .  S
O1766      C1782   1.220       .  S
C1767      C1811   1.475       .  S
C1767      O1770   1.254       .  A
C1767      O1793   1.220       .  S
O1768     Mn2470   2.120       .  S
O1768     Mn1769   2.170       .  S
O1768     Mn1802   2.133       .  S
O1768     Mn1784   2.168       .  S
Mn1769     O2480   2.124       .  S
Mn1769     O1774   2.099       .  S
O1770     Mn2466   2.105   1_545  S
O1771     Mn1778   2.084       .  S
O1771      C1773   1.271       .  A
C1772      C1851   1.488       .  S
C1772      O1798   1.254       .  A
C1772      O1785   1.220       .  S
C1773      C1991   1.489       .  S
O1774      C1799   1.253       .  A
O1775     Mn1778   2.136       .  S
O1775     Mn1797   2.120       .  S
O1776     Mn1780   1.971       .  S
O1776     Mn1802   1.956       .  S
O1776      C1799   1.220       .  S
C1777      C1891   1.492       .  S
C1777      O2485   1.274       .  A
C1777      O1779   1.269       .  A
Mn1778     O1791   2.106       .  S
O1779     Mn1802   2.087       .  S
Mn1780     O1796   2.078       .  S
Mn1780     O1790   1.956       .  S
O1781     Mn1786   2.104       .  S
C1782      C1911   1.475       .  S
C1782      O1800   1.252       .  A
C1783      C1880   1.488       .  S
C1783      O1796   1.269       .  A
Mn1784     O2452   2.101       .  S
O1785     Mn1788   1.969       .  S
Mn1786     O1804   1.946       .  S
C1787      C1840   1.487       .  S
Mn1788     O1795   2.085   1_545  S
Mn1788     O1803   2.118   1_545  S
Mn1788     O2450   2.121   1_545  S
Mn1788     O1793   1.968       .  S
C1789      C1931   1.488       .  S
C1789      O2477   1.272       .  A
C1789      O1805   1.273       .  A
O1790     Mn1802   1.957       .  S
O1790      C1792   1.217       .  S
C1792      C1980   1.478       .  S
O1794     Mn1797   2.093       .  S
O1795      C2471   1.270       .  A
Mn1797     O2448   1.977   1_545  S
Mn1797     O2486   1.957   1_545  S
O1798     Mn2451   2.108   1_545  S
C1799      C2020   1.480       .  S
O1801      C1806   1.255       .  A
Mn1802     O1805   2.102       .  S
O1803      C2459   1.277       .  A
O1804     Mn2479   1.971       .  S
O1804      C1806   1.219       .  S
C1806      C1951   1.488       .  S
C1807      C1808   1.408       .  A
C1807      C1812   1.393       .  A
C1807      H1817   1.082       .  S
C1808      C1813   1.500       .  S
C1809      C1810   1.404       .  A
C1809      F1814   1.357       .  S
C1810      H1815   1.083       .  S
C1811      C1812   1.402       .  A
C1812      F1816   1.356       .  S
C1813      C1818   1.412       .  A
C1813      C1822   1.408   1_655  A
C1818      C1819   1.395       .  A
C1818      F1823   1.358       .  S
C1819      H1824   1.082       .  S
C1820      C1821   1.413       .  A
C1821      F1825   1.357       .  S
C1827      C1832   1.399       .  A
C1827      H1837   1.083       .  S
C1828      C1829   1.408   1_455  A
C1828      C1833   1.487       .  S
C1829      C1830   1.398   1_556  A
C1829      F1834   1.358       .  S
C1830      C1831   1.404   1_655  A
C1832      F1836   1.358       .  S
C1833      C1842   1.406   1_455  A
C1838      C1839   1.397       .  A
C1838      F1843   1.358       .  S
C1839      H1844   1.083       .  S
C1840      C1841   1.408       .  A
C1841      C1842   1.398       .  A
C1841      F1845   1.357       .  S
C1842      H1846   1.083       .  S
C1847      C1852   1.396       .  A
C1847      H1857   1.083       .  S
C1848      C1849   1.409       .  A
C1848      C1853   1.491       .  S
C1849      C1850   1.405       .  A
C1849      F1854   1.357       .  S
C1850      C1851   1.408       .  A
C1850      H1855   1.083       .  S
C1852      F1856   1.358       .  S
C1853      C1858   1.408       .  A
C1853      C1862   1.409   1_655  A
C1858      C1859   1.395       .  A
C1858      F1863   1.357       .  S
C1859      C1860   1.402       .  A
C1859      H1864   1.084       .  S
C1860      C1861   1.407   1_655  A
C1861      C1862   1.405       .  A
C1861      F1865   1.357       .  S
C1862      H1866   1.083       .  S
C1867      C1868   1.407       .  A
C1867      C1872   1.401       .  A
C1867      H1877   1.083       .  S
C1868      C1873   1.486       .  S
C1869      C1870   1.397       .  A
C1869      F1874   1.357       .  S
C1870      H1875   1.083       .  S
C1871      C1872   1.407       .  A
C1872      F1876   1.357       .  S
C1873      C1878   1.408   1_655  A
C1873      C1882   1.402       .  A
C1878      C1879   1.401       .  A
C1879      C1880   1.407   1_455  A
C1880      C1881   1.413       .  A
C1881      C1882   1.396       .  A
C1881      F1885   1.358       .  S
C1882      H1886   1.083       .  S
C1887      C1888   1.403       .  A
C1887      C1892   1.400       .  A
C1887      H1897   1.083       .  S
C1888      C2571   1.409       .  A
C1888      C1893   1.489       .  S
C1889      C2570   1.408       .  A
C1889      C1890   1.403       .  A
C1889      F1894   1.357   1_565  S
C1890      C2573   1.408       .  A
C1890      H1895   1.082   1_565  S
C1891      C2572   1.407       .  A
C1891      C1892   1.413       .  A
C1892      F1896   1.356       .  S
C1893      C1898   1.409       .  A
C1893      C1902   1.404       .  A
C1898      C1899   1.402       .  A
C1898      F1903   1.357       .  S
C1899      C1900   1.405   1_556  A
C1899      H1904   1.083       .  S
C1901      F1905   1.358       .  S
C1907      C1908   1.411       .  A
C1907      C1912   1.402       .  A
C1907      H1917   1.082       .  S
C1908      C2591   1.412       .  A
C1908      C1913   1.498       .  S
C1909      C2590   1.414   1_545  A
C1909      C1910   1.397       .  A
C1909      F1914   1.357       .  S
C1910      C2593   1.399   1_545  A
C1910      H1915   1.082       .  S
C1911      C2592   1.400       .  A
C1911      C1912   1.404       .  A
C1912      F1916   1.357       .  S
C1913      C1918   1.410       .  A
C1913      C1922   1.406       .  A
C1919      C1920   1.410       .  A
C1919      H1924   1.082       .  S
C1921      C1922   1.396       .  A
C1921      F2607   1.357       .  S
C1922      H2608   1.082       .  S
F1925      C2603   1.357       .  S
H1926      C2604   1.081       .  S
C1927      C1928   1.406       .  A
C1927      C1932   1.401       .  A
C1927      H1937   1.083       .  S
C1928      C1929   1.406       .  A
C1928      C1933   1.488       .  S
C1929      C1930   1.398       .  A
C1929      F2616   1.358       .  S
C1930      C1931   1.408       .  A
C1930      H2617   1.083       .  S
C1931      C1932   1.410       .  A
C1932      F1936   1.357       .  S
C1933      C1938   1.406       .  A
C1933      C1942   1.406       .  A
F1934      C2611   1.358   1_545  S
H1935      C2612   1.084   1_545  S
C1938      C1939   1.400       .  A
C1938      F1943   1.357       .  S
C1939      C1940   1.407       .  A
C1939      H1944   1.083       .  S
C1940      C1941   1.408       .  A
C1941      C1942   1.400       .  A
C1941      F1945   1.358       .  S
C1942      H1946   1.083       .  S
C1947      C1948   1.402       .  A
C1947      C1952   1.396       .  A
C1947      H1957   1.083       .  S
C1948      C1949   1.408       .  A
C1948      C1953   1.487       .  S
C1949      C1950   1.405       .  A
C1949      F2636   1.357       .  S
C1950      C1951   1.407       .  A
C1950      H2637   1.083       .  S
C1951      C1952   1.412       .  A
C1952      F1956   1.358       .  S
C1953      C1958   1.407       .  A
C1953      C1962   1.407       .  A
F1954      C2631   1.357       .  S
H1955      C2632   1.083       .  S
C1958      C1959   1.397       .  A
C1958      F1963   1.358       .  S
C1959      C1960   1.403       .  A
C1959      H1964   1.083       .  S
C1960      C1961   1.407       .  A
C1961      C1962   1.405       .  A
C1961      F1965   1.357       .  S
C1962      H1966   1.083       .  S
C1967      C1968   1.401       .  A
C1968      C1969   1.404       .  A
C1968      C1973   1.473       .  S
C1969      C1970   1.394       .  A
C1969      F1974   1.358       .  S
C1970      H1975   1.083       .  S
C1971      C1972   1.410       .  A
C1972      F1976   1.357       .  S
C1973      C1978   1.404       .  A
C1973      C1982   1.399       .  A
C1978      C1979   1.400       .  A
C1978      F1983   1.357       .  S
C1979      C1980   1.407       .  A
C1979      H1984   1.083       .  S
C1980      C1981   1.411       .  A
C1981      C1982   1.392       .  A
C1981      F1985   1.358       .  S
C1982      H1986   1.084       .  S
C1987      C1988   1.404       .  A
C1987      C1992   1.398       .  A
C1987      H1997   1.083       .  S
C1988      C1989   1.405       .  A
C1988      C1993   1.484       .  S
C1989      C1990   1.398       .  A
C1989      F1994   1.358       .  S
C1990      C1991   1.410       .  A
C1990      H1995   1.083       .  S
C1991      C1992   1.410       .  A
C1992      F1996   1.355       .  S
C1993      C1998   1.407       .  A
C1993      C2002   1.404       .  A
C1998      C1999   1.399   1_556  A
C1998      F2003   1.357   1_556  S
C1999      C2000   1.404       .  A
C1999      H2004   1.083       .  S
C2000      C2001   1.409   1_554  A
C2001      C2002   1.398       .  A
C2001      F2005   1.358       .  S
C2002      H2006   1.083       .  S
C2007      C2008   1.403       .  A
C2007      C2012   1.400       .  A
C2007      H2017   1.083       .  S
C2008      C2009   1.402       .  A
C2008      C2013   1.475       .  S
C2009      C2010   1.398       .  A
C2009      F2014   1.358       .  S
C2010      C2011   1.407       .  A
C2010      H2015   1.083       .  S
C2011      C2012   1.407       .  A
C2012      F2016   1.357       .  S
C2013      C2018   1.404       .  A
C2013      C2022   1.400       .  A
C2018      C2019   1.401       .  A
C2018      F2023   1.357       .  S
C2019      C2020   1.407       .  A
C2019      H2024   1.083       .  S
C2020      C2021   1.410       .  A
C2021      C2022   1.396       .  A
C2021      F2025   1.358       .  S
C2022      H2026   1.083       .  S
C2027      C2028   1.403       .  A
C2027      C2032   1.398       .  A
C2027      H2037   1.083       .  S
C2028      C2029   1.408       .  A
C2028      C2033   1.488       .  S
C2029      C2030   1.403       .  A
C2029      F2034   1.357       .  S
C2030      C2031   1.409       .  A
C2030      H2035   1.083       .  S
C2031      C2032   1.412       .  A
C2032      F2036   1.357       .  S
C2033      C2038   1.408       .  A
C2033      C2042   1.405       .  A
C2038      C2039   1.398       .  A
C2038      F2043   1.358       .  S
C2039      C2040   1.405       .  A
C2039      H2044   1.083       .  S
C2040      C2041   1.409       .  A
C2041      C2042   1.402       .  A
C2041      F2045   1.357       .  S
C2042      H2046   1.083       .  S
C2047      C2048   1.406       .  A
C2047      C2052   1.403       .  A
C2047      C2381   1.488       .  S
C2048      C2049   1.415       .  A
C2048      H2053   1.080       .  S
C2049      C2050   1.414       .  A
C2049      C2058   1.510       .  S
C2050      C2051   1.404       .  A
C2050      H2054   1.079       .  S
C2051      C2052   1.403       .  A
C2051      C2352   1.489       .  S
C2052      H2055   1.083       .  S
C2056      C2057   1.408       .  A
C2056      C2061   1.402       .  A
C2056      C2682   1.491       .  S
C2057      C2058   1.416       .  A
C2057      H2062   1.080       .  S
C2058      C2059   1.415       .  A
C2059      C2060   1.402       .  A
C2059      H2063   1.079       .  S
C2060      C2061   1.400       .  A
C2060      C2312   1.485       .  S
C2061      H2405   1.083   1_554  S
H2064      C2402   1.083       .  S
C2065      C2066   1.403       .  A
C2065      C2070   1.399       .  A
C2065      C2281   1.481       .  S
C2066      C2067   1.416       .  A
C2066      H2071   1.079       .  S
C2067      C2068   1.417       .  A
C2067      C2076   1.512       .  S
C2068      C2069   1.405       .  A
C2068      H2072   1.080       .  S
C2069      C2070   1.400       .  A
C2069      C2301   1.481       .  S
C2070      H2073   1.084       .  S
C2074      C2075   1.405       .  A
C2074      C2079   1.402       .  A
C2074      C2582   1.496       .  S
C2075      C2076   1.416       .  A
C2075      H2080   1.079       .  S
C2076      C2077   1.416       .  A
C2077      C2078   1.410       .  A
C2077      H2081   1.079       .  S
C2078      C2079   1.407       .  A
C2078      C2261   1.503       .  S
C2079      H2423   1.080   1_554  S
H2082      C2420   1.080       .  S
C2083      C2084   1.401       .  A
C2083      C2088   1.406       .  A
C2083      C2212   1.492       .  S
C2084      C2085   1.402   1_455  A
C2084      H2089   1.083       .  S
C2085      C2086   1.407   1_655  A
C2085      C2201   1.491       .  S
C2086      C2087   1.421       .  A
C2086      H2090   1.083   1_455  S
C2087      C2088   1.419       .  A
C2087      C2094   1.525       .  S
C2088      H2091   1.072       .  S
C2092      C2093   1.404       .  A
C2092      C2097   1.399       .  A
C2092      C2513   1.493       .  S
C2093      C2094   1.419       .  A
C2093      H2098   1.073       .  S
C2094      C2095   1.419   1_455  A
C2095      C2096   1.411       .  A
C2095      H2099   1.081       .  S
C2096      C2097   1.406   1_655  A
C2096      C2161   1.505       .  S
C2097      H2441   1.080   1_554  S
H2100      C2438   1.080       .  S
O2101     Mn2127   2.090       .  S
C2102      C2372   1.489       .  S
C2102      O2135   1.270       .  A
C2102      O2132   1.274       .  A
O2103     Mn2110   2.166       .  S
O2103     Mn2121   2.120       .  S
O2103     Mn2125   2.163       .  S
O2104     Mn2138   2.115       .  S
O2104      C2114   1.276       .  A
O2105     Mn2121   2.105       .  S
O2105      C2128   1.274       .  A
O2106     Mn2125   2.111       .  S
O2106      C2133   1.254       .  A
O2107     Mn2127   1.972       .  S
O2107      C2123   1.220       .  S
C2108      C2152   1.475       .  S
C2108      O2111   1.253       .  A
C2108      O2134   1.220       .  S
O2109     Mn2110   2.170       .  S
O2109     Mn2143   2.133       .  S
O2109     Mn2125   2.162       .  S
Mn2110     O2115   2.104       .  S
O2112     Mn2119   2.088       .  S
O2112      C2114   1.272       .  A
C2113      C2192   1.491       .  S
C2113      O2139   1.256       .  A
C2113      O2126   1.217       .  S
C2114      C2332   1.495       .  S
O2115      C2140   1.253       .  A
O2116     Mn2119   2.132       .  S
O2116     Mn2138   2.123       .  S
O2117     Mn2121   1.966       .  S
O2117     Mn2143   1.955       .  S
O2117      C2140   1.219       .  S
C2118      C2232   1.497       .  S
C2118      O2120   1.271       .  A
Mn2119     O2132   2.106       .  S
O2120     Mn2143   2.091       .  S
Mn2121     O2137   2.098       .  S
Mn2121     O2131   1.968       .  S
O2122     Mn2127   2.099       .  S
C2123      C2252   1.476       .  S
C2123      O2141   1.251       .  A
C2124      C2221   1.492       .  S
C2124      O2137   1.273       .  A
O2126     Mn2129   1.957       .  S
Mn2127     O2145   1.945       .  S
C2128      C2181   1.492       .  S
Mn2129     O2136   2.091       .  S
Mn2129     O2144   2.110       .  S
Mn2129     O2134   1.975       .  S
C2130      C2272   1.481       .  S
C2130      O2146   1.272       .  A
O2131     Mn2143   1.962       .  S
O2131      C2133   1.219       .  S
C2133      C2321   1.487       .  S
O2135     Mn2138   2.084       .  S
C2140      C2361   1.484       .  S
O2142      C2147   1.255       .  A
Mn2143     O2146   2.096       .  S
O2145      C2147   1.216       .  S
C2147      C2292   1.482       .  S
C2148      C2149   1.407       .  A
C2148      C2153   1.394       .  A
C2148      H2158   1.082       .  S
C2149      C2154   1.498       .  S
C2150      C2151   1.403       .  A
C2150      F2155   1.357       .  S
C2151      H2156   1.083       .  S
C2152      C2153   1.403       .  A
C2153      F2157   1.354       .  S
C2154      C2159   1.411       .  A
C2154      C2163   1.406       .  A
C2159      C2160   1.396       .  A
C2159      F2164   1.358       .  S
C2160      C2502   1.409       .  A
C2160      H2165   1.081       .  S
C2161      C2501   1.409   1_554  A
C2161      C2162   1.414   1_655  A
C2162      C2504   1.402   1_454  A
C2162      F2166   1.356       .  S
C2163      C2503   1.402   1_655  A
C2163      H2508   1.082   1_655  S
H2167      C2504   1.082   1_454  S
C2168      C2173   1.401       .  A
C2168      H2178   1.083       .  S
C2169      C2170   1.408   1_455  A
C2169      C2174   1.490       .  S
C2170      C2171   1.401       .  A
C2170      F2175   1.358       .  S
C2171      C2172   1.407   1_655  A
C2171      H2517   1.083       .  S
C2172      C2433   1.492       .  S
C2173      F2177   1.357       .  S
C2174      C2183   1.405   1_455  A
H2176      C2512   1.083       .  S
C2179      C2180   1.400       .  A
C2179      F2184   1.358       .  S
C2180      H2185   1.083       .  S
C2181      C2182   1.411       .  A
C2182      C2183   1.400       .  A
C2182      F2186   1.357       .  S
C2183      H2187   1.083       .  S
C2188      C2193   1.396       .  A
C2188      H2198   1.083       .  S
C2189      C2190   1.412       .  A
C2189      C2194   1.497       .  S
C2190      C2191   1.406       .  A
C2190      F2195   1.357       .  S
C2191      C2192   1.406       .  A
C2191      H2196   1.083       .  S
C2193      F2197   1.358       .  S
C2194      C2199   1.411       .  A
C2194      C2203   1.408   1_655  A
C2199      C2200   1.400       .  A
C2199      F2204   1.358       .  S
C2200      C2201   1.405       .  A
C2200      H2205   1.084       .  S
C2201      C2202   1.407   1_655  A
C2202      C2203   1.403       .  A
C2202      F2206   1.357       .  S
C2203      H2207   1.083       .  S
C2208      C2209   1.404   1_655  A
C2208      C2213   1.400       .  A
C2208      H2218   1.083       .  S
C2209      C2214   1.488       .  S
C2210      C2211   1.401       .  A
C2210      F2215   1.358       .  S
C2211      H2216   1.083       .  S
C2212      C2213   1.409   1_455  A
C2213      F2217   1.357       .  S
C2214      C2219   1.406       .  A
C2214      C2223   1.404   1_455  A
C2219      C2220   1.401       .  A
C2220      C2221   1.410   1_455  A
C2221      C2222   1.412       .  A
C2222      C2223   1.399       .  A
C2222      F2226   1.358       .  S
C2223      H2227   1.083       .  S
C2228      C2229   1.403       .  A
C2228      C2233   1.401       .  A
C2228      H2238   1.083       .  S
C2229      C2234   1.491       .  S
C2230      C2231   1.402       .  A
C2230      F2235   1.358       .  S
C2231      H2236   1.083       .  S
C2232      C2233   1.415       .  A
C2233      F2237   1.357       .  S
C2234      C2239   1.409       .  A
C2234      C2243   1.404       .  A
C2239      C2240   1.401       .  A
C2239      F2244   1.357       .  S
C2240      C2241   1.406       .  A
C2240      H2245   1.083       .  S
C2241      C2583   1.411       .  A
C2241      C2415   1.494       .  S
C2242      C2582   1.411       .  A
C2242      C2584   1.402   1_554  A
C2242      F2246   1.357       .  S
C2243      C2583   1.401       .  A
C2243      H2588   1.083       .  S
H2247      C2584   1.083   1_554  S
C2248      C2249   1.412       .  A
C2248      C2253   1.402       .  A
C2248      H2258   1.082       .  S
C2249      C2254   1.502       .  S
C2250      C2251   1.396       .  A
C2250      F2255   1.357       .  S
C2251      H2256   1.082       .  S
C2252      C2253   1.404       .  A
C2253      F2257   1.357       .  S
C2254      C2259   1.411       .  A
C2254      C2263   1.407       .  A
C2259      C2601   1.404       .  A
C2259      F2605   1.357       .  S
C2260      C2600   1.403       .  A
C2260      C2261   1.410       .  A
C2260      H2265   1.082       .  S
C2261      C2603   1.412   1_554  A
C2262      C2602   1.413       .  A
C2262      C2263   1.397       .  A
F2264      C2600   1.357       .  S
C2268      C2269   1.406       .  A
C2268      C2273   1.399       .  A
C2268      H2278   1.083       .  S
C2269      C2270   1.407       .  A
C2269      C2274   1.486       .  S
C2270      C2271   1.397       .  A
C2271      C2272   1.407       .  A
C2272      C2273   1.407       .  A
C2273      F2277   1.358       .  S
C2274      C2279   1.407       .  A
C2274      C2283   1.407       .  A
C2279      C2280   1.399       .  A
C2279      F2284   1.357       .  S
C2280      C2281   1.404       .  A
C2280      H2285   1.083       .  S
C2281      C2282   1.405       .  A
C2282      C2283   1.399       .  A
C2282      F2286   1.357   1_565  S
C2283      H2287   1.083   1_565  S
C2288      C2289   1.403       .  A
C2288      C2293   1.394       .  A
C2288      H2298   1.083       .  S
C2289      C2290   1.409       .  A
C2289      C2294   1.487       .  S
C2290      C2291   1.404       .  A
C2291      C2292   1.405       .  A
C2292      C2293   1.410       .  A
C2293      F2297   1.358   1_565  S
C2294      C2299   1.408       .  A
C2294      C2303   1.407       .  A
C2299      C2300   1.397       .  A
C2299      F2304   1.358   1_565  S
C2300      C2301   1.402       .  A
C2300      H2305   1.084   1_565  S
C2301      C2302   1.406       .  A
C2302      C2303   1.403       .  A
C2302      F2306   1.357       .  S
C2303      H2307   1.083       .  S
C2308      C2309   1.405       .  A
C2308      C2654   1.404       .  A
C2308      H2659   1.083       .  S
C2309      C2310   1.407       .  A
C2309      C2314   1.484       .  S
C2310      C2311   1.396       .  A
C2310      F2315   1.358       .  S
C2311      C2653   1.404       .  A
C2311      H2316   1.083       .  S
C2312      C2652   1.404   1_554  A
C2312      C2313   1.409       .  A
C2313      C2649   1.403   1_554  A
C2313      F2317   1.357       .  S
C2314      C2319   1.407       .  A
C2314      C2323   1.400       .  A
H2318      C2649   1.083   1_554  S
C2319      C2320   1.406       .  A
C2319      F2324   1.357       .  S
C2320      C2321   1.408       .  A
C2320      H2325   1.083       .  S
C2321      C2322   1.411       .  A
C2322      C2323   1.393       .  A
C2322      F2326   1.358       .  S
C2323      H2327   1.084       .  S
C2328      C2329   1.405       .  A
C2328      C2333   1.401       .  A
C2328      H2338   1.083       .  S
C2329      C2330   1.406       .  A
C2329      C2334   1.490       .  S
C2330      C2331   1.400       .  A
C2330      F2335   1.358       .  S
C2331      C2332   1.411       .  A
C2331      H2336   1.083       .  S
C2332      C2333   1.410       .  A
C2333      F2337   1.354       .  S
C2334      C2339   1.408       .  A
C2334      C2343   1.406       .  A
C2339      C2340   1.401       .  A
C2339      F2344   1.357       .  S
C2340      C2341   1.407       .  A
C2340      H2345   1.083       .  S
C2341      C2342   1.409       .  A
C2341      C2397   1.491       .  S
C2342      C2343   1.400       .  A
C2342      F2346   1.358       .  S
C2343      H2347   1.083       .  S
C2348      C2349   1.405       .  A
C2348      C2353   1.399       .  A
C2348      H2358   1.083       .  S
C2349      C2350   1.405       .  A
C2349      C2354   1.483       .  S
C2350      C2351   1.400       .  A
C2350      F2355   1.357       .  S
C2351      C2352   1.408       .  A
C2351      H2356   1.083       .  S
C2352      C2353   1.408       .  A
C2353      F2357   1.357       .  S
C2354      C2359   1.407       .  A
C2354      C2363   1.401       .  A
C2359      C2360   1.403       .  A
C2359      F2364   1.357       .  S
C2360      C2361   1.407       .  A
C2360      H2365   1.083       .  S
C2361      C2362   1.410       .  A
C2362      C2363   1.395       .  A
C2362      F2366   1.358       .  S
C2363      H2367   1.083       .  S
C2368      C2369   1.404       .  A
C2368      C2373   1.398       .  A
C2368      H2378   1.083       .  S
C2369      C2370   1.409       .  A
C2369      C2374   1.490       .  S
C2370      C2371   1.401       .  A
C2370      F2375   1.357       .  S
C2371      C2372   1.407       .  A
C2371      H2376   1.083       .  S
C2372      C2373   1.413       .  A
C2373      F2377   1.358       .  S
C2374      C2379   1.409       .  A
C2374      C2383   1.406       .  A
C2379      C2380   1.399       .  A
C2379      F2384   1.358       .  S
C2380      C2381   1.404       .  A
C2380      H2385   1.083       .  S
C2381      C2382   1.408       .  A
C2382      C2383   1.401       .  A
C2382      F2386   1.357       .  S
C2383      H2387   1.083       .  S
C2388      C2389   1.406       .  A
C2388      C2393   1.402       .  A
C2388      C2722   1.486       .  S
C2389      C2390   1.415       .  A
C2389      H2394   1.080       .  S
C2390      C2391   1.414       .  A
C2390      C2399   1.510       .  S
C2391      C2392   1.404       .  A
C2391      H2395   1.079       .  S
C2392      C2393   1.402       .  A
C2392      C2693   1.488       .  S
C2393      H2396   1.083       .  S
C2397      C2398   1.407       .  A
C2397      C2402   1.403       .  A
C2398      C2399   1.416       .  A
C2398      H2403   1.080       .  S
C2399      C2400   1.415       .  A
C2400      C2401   1.402       .  A
C2400      H2404   1.079       .  S
C2401      C2402   1.401       .  A
C2401      C2653   1.487       .  S
C2406      C2407   1.404       .  A
C2406      C2411   1.399       .  A
C2406      C2622   1.482       .  S
C2407      C2408   1.417       .  A
C2407      H2412   1.079       .  S
C2408      C2409   1.416       .  A
C2408      C2417   1.512       .  S
C2409      C2410   1.405       .  A
C2409      H2413   1.080       .  S
C2410      C2411   1.399       .  A
C2410      C2642   1.480       .  S
C2411      H2414   1.084       .  S
C2415      C2416   1.403       .  A
C2415      C2420   1.402       .  A
C2416      C2417   1.414       .  A
C2416      H2421   1.079       .  S
C2417      C2418   1.417       .  A
C2418      C2419   1.412       .  A
C2418      H2422   1.079       .  S
C2419      C2420   1.407       .  A
C2419      C2602   1.505       .  S
C2424      C2425   1.401       .  A
C2424      C2429   1.405       .  A
C2424      C2553   1.491       .  S
C2425      C2426   1.402       .  A
C2425      H2430   1.084       .  S
C2426      C2427   1.408       .  A
C2426      C2542   1.492   1_455  S
C2427      C2428   1.421       .  A
C2427      H2431   1.080       .  S
C2428      C2429   1.418       .  A
C2428      C2435   1.523       .  S
C2429      H2432   1.073       .  S
C2433      C2434   1.404       .  A
C2433      C2438   1.400       .  A
C2434      C2435   1.419       .  A
C2434      H2439   1.073       .  S
C2435      C2436   1.418   1_455  A
C2436      C2437   1.411       .  A
C2436      H2440   1.079       .  S
C2437      C2438   1.407   1_655  A
C2437      C2502   1.505       .  S
O2442     Mn2468   2.091       .  S
C2443      C2713   1.488       .  S
C2443      O2476   1.270       .  A
C2443      O2473   1.274       .  A
O2444     Mn2451   2.168       .  S
O2444     Mn2462   2.120       .  S
O2444     Mn2466   2.163       .  S
O2445     Mn2479   2.114       .  S
O2445      C2455   1.276       .  A
O2446     Mn2462   2.104       .  S
O2446      C2469   1.274       .  A
O2447     Mn2466   2.112       .  S
O2447      C2474   1.254       .  A
O2448     Mn2468   1.973       .  S
O2448      C2464   1.220       .  S
C2449      C2493   1.475       .  S
C2449      O2452   1.253       .  A
C2449      O2475   1.221       .  S
O2450     Mn2451   2.171       .  S
O2450     Mn2484   2.132       .  S
O2450     Mn2466   2.161       .  S
Mn2451     O2456   2.102       .  S
O2453     Mn2460   2.086       .  S
O2453      C2455   1.271       .  A
C2454      C2533   1.492       .  S
C2454      O2480   1.256       .  A
C2454      O2467   1.217       .  S
C2455      C2673   1.494       .  S
O2456      C2481   1.253       .  A
O2457     Mn2460   2.133       .  S
O2457     Mn2479   2.122       .  S
O2458     Mn2462   1.964       .  S
O2458     Mn2484   1.955       .  S
O2458      C2481   1.218       .  S
C2459      C2573   1.498       .  S
C2459      O2461   1.271       .  A
Mn2460     O2473   2.105       .  S
O2461     Mn2484   2.093       .  S
Mn2462     O2478   2.096       .  S
Mn2462     O2472   1.965       .  S
O2463     Mn2468   2.100       .  S
C2464      C2593   1.474       .  S
C2464      O2482   1.251       .  A
C2465      C2562   1.492       .  S
C2465      O2478   1.272       .  A
O2467     Mn2470   1.959       .  S
Mn2468     O2486   1.945       .  S
C2469      C2522   1.492       .  S
Mn2470     O2477   2.089       .  S
Mn2470     O2485   2.111       .  S
Mn2470     O2475   1.974       .  S
C2471      C2613   1.481       .  S
C2471      O2487   1.271       .  A
O2472     Mn2484   1.959       .  S
O2472      C2474   1.218       .  S
C2474      C2662   1.486       .  S
O2476     Mn2479   2.082       .  S
C2481      C2702   1.481       .  S
O2483      C2488   1.255       .  A
Mn2484     O2487   2.094       .  S
O2486      C2488   1.216       .  S
C2488      C2633   1.482       .  S
C2489      C2490   1.407       .  A
C2489      C2494   1.394       .  A
C2489      H2499   1.082       .  S
C2490      C2495   1.498       .  S
C2491      C2492   1.403       .  A
C2491      F2496   1.357       .  S
C2492      H2497   1.083       .  S
C2493      C2494   1.403       .  A
C2494      F2498   1.354       .  S
C2495      C2500   1.411       .  A
C2495      C2504   1.406       .  A
C2500      C2501   1.396       .  A
C2500      F2505   1.358       .  S
C2501      H2506   1.082       .  S
C2502      C2503   1.414   1_655  A
C2503      F2507   1.356       .  S
C2509      C2514   1.400       .  A
C2509      H2519   1.083       .  S
C2510      C2511   1.408   1_455  A
C2510      C2515   1.489       .  S
C2511      C2512   1.401   1_556  A
C2511      F2516   1.358       .  S
C2512      C2513   1.407   1_655  A
C2514      F2518   1.357       .  S
C2515      C2524   1.405   1_455  A
C2520      C2521   1.400       .  A
C2520      F2525   1.358       .  S
C2521      H2526   1.083       .  S
C2522      C2523   1.411       .  A
C2523      C2524   1.400       .  A
C2523      F2527   1.357       .  S
C2524      H2528   1.083       .  S
C2529      C2534   1.397       .  A
C2529      H2539   1.083       .  S
C2530      C2531   1.412       .  A
C2530      C2535   1.498       .  S
C2531      C2532   1.407       .  A
C2531      F2536   1.357       .  S
C2532      C2533   1.406       .  A
C2532      H2537   1.083       .  S
C2534      F2538   1.358       .  S
C2535      C2540   1.411       .  A
C2535      C2544   1.409   1_655  A
C2540      C2541   1.400       .  A
C2540      F2545   1.358       .  S
C2541      C2542   1.405       .  A
C2541      H2546   1.083       .  S
C2542      C2543   1.408   1_655  A
C2543      C2544   1.405       .  A
C2543      F2547   1.357       .  S
C2544      H2548   1.083       .  S
C2549      C2550   1.405   1_655  A
C2549      C2554   1.400       .  A
C2549      H2559   1.083       .  S
C2550      C2555   1.488       .  S
C2551      C2552   1.400       .  A
C2551      F2556   1.358       .  S
C2552      H2557   1.083       .  S
C2553      C2554   1.409   1_455  A
C2554      F2558   1.357       .  S
C2555      C2560   1.406       .  A
C2555      C2564   1.404   1_455  A
C2560      C2561   1.401       .  A
C2561      C2562   1.409   1_455  A
C2562      C2563   1.412       .  A
C2563      C2564   1.399       .  A
C2563      F2567   1.358       .  S
C2564      H2568   1.083       .  S
C2569      C2570   1.404       .  A
C2569      C2574   1.401       .  A
C2569      H2579   1.083       .  S
C2570      C2575   1.493       .  S
C2571      C2572   1.401       .  A
C2571      F2576   1.358       .  S
C2572      H2577   1.083       .  S
C2573      C2574   1.415       .  A
C2574      F2578   1.357       .  S
C2575      C2580   1.409       .  A
C2575      C2584   1.405       .  A
C2580      C2581   1.401       .  A
C2580      F2585   1.357       .  S
C2581      C2582   1.407   1_556  A
C2581      H2586   1.083       .  S
C2583      F2587   1.358       .  S
C2589      C2590   1.411       .  A
C2589      C2594   1.401       .  A
C2589      H2599   1.082       .  S
C2590      C2595   1.500       .  S
C2591      C2592   1.396       .  A
C2591      F2596   1.357       .  S
C2592      H2597   1.082       .  S
C2593      C2594   1.403       .  A
C2594      F2598   1.357       .  S
C2595      C2600   1.411   1_556  A
C2595      C2604   1.406       .  A
C2601      C2602   1.410       .  A
C2601      H2606   1.082       .  S
C2603      C2604   1.396       .  A
C2609      C2610   1.406       .  A
C2609      C2614   1.399       .  A
C2609      H2619   1.083       .  S
C2610      C2611   1.407       .  A
C2610      C2615   1.487       .  S
C2611      C2612   1.397       .  A
C2612      C2613   1.406       .  A
C2613      C2614   1.408       .  A
C2614      F2618   1.358       .  S
C2615      C2620   1.408       .  A
C2615      C2624   1.407       .  A
C2620      C2621   1.400       .  A
C2620      F2625   1.357       .  S
C2621      C2622   1.404       .  A
C2621      H2626   1.083       .  S
C2622      C2623   1.405       .  A
C2623      C2624   1.399       .  A
C2623      F2627   1.357   1_565  S
C2624      H2628   1.083   1_565  S
C2629      C2630   1.403       .  A
C2629      C2634   1.393       .  A
C2629      H2639   1.083       .  S
C2630      C2631   1.409       .  A
C2630      C2635   1.488       .  S
C2631      C2632   1.404       .  A
C2632      C2633   1.405       .  A
C2633      C2634   1.410       .  A
C2634      F2638   1.358   1_565  S
C2635      C2640   1.409       .  A
C2635      C2644   1.407       .  A
C2640      C2641   1.396       .  A
C2640      F2645   1.358   1_565  S
C2641      C2642   1.402       .  A
C2641      H2646   1.084   1_565  S
C2642      C2643   1.405       .  A
C2643      C2644   1.402       .  A
C2643      F2647   1.357       .  S
C2644      H2648   1.083       .  S
C2649      C2650   1.404       .  A
C2650      C2651   1.406       .  A
C2650      C2655   1.482       .  S
C2651      C2652   1.396       .  A
C2651      F2656   1.358       .  S
C2652      H2657   1.083       .  S
C2653      C2654   1.410       .  A
C2654      F2658   1.357       .  S
C2655      C2660   1.407       .  A
C2655      C2664   1.400       .  A
C2660      C2661   1.405       .  A
C2660      F2665   1.357       .  S
C2661      C2662   1.408       .  A
C2661      H2666   1.083       .  S
C2662      C2663   1.412       .  A
C2663      C2664   1.393       .  A
C2663      F2667   1.358       .  S
C2664      H2668   1.084       .  S
C2669      C2670   1.405       .  A
C2669      C2674   1.400       .  A
C2669      H2679   1.083       .  S
C2670      C2671   1.406       .  A
C2670      C2675   1.489       .  S
C2671      C2672   1.399       .  A
C2671      F2676   1.358       .  S
C2672      C2673   1.410       .  A
C2672      H2677   1.083       .  S
C2673      C2674   1.410       .  A
C2674      F2678   1.354       .  S
C2675      C2680   1.407       .  A
C2675      C2684   1.405       .  A
C2680      C2681   1.401   1_556  A
C2680      F2685   1.357   1_556  S
C2681      C2682   1.407       .  A
C2681      H2686   1.083       .  S
C2682      C2683   1.409   1_554  A
C2683      C2684   1.399       .  A
C2683      F2687   1.358       .  S
C2684      H2688   1.083       .  S
C2689      C2690   1.404       .  A
C2689      C2694   1.398       .  A
C2689      H2699   1.083       .  S
C2690      C2691   1.403       .  A
C2690      C2695   1.479       .  S
C2691      C2692   1.399       .  A
C2691      F2696   1.357       .  S
C2692      C2693   1.408       .  A
C2692      H2697   1.083       .  S
C2693      C2694   1.408       .  A
C2694      F2698   1.357       .  S
C2695      C2700   1.406       .  A
C2695      C2704   1.401       .  A
C2700      C2701   1.402       .  A
C2700      F2705   1.357       .  S
C2701      C2702   1.406       .  A
C2701      H2706   1.083       .  S
C2702      C2703   1.410       .  A
C2703      C2704   1.395       .  A
C2703      F2707   1.358       .  S
C2704      H2708   1.083       .  S
C2709      C2710   1.403       .  A
C2709      C2714   1.397       .  A
C2709      H2719   1.083       .  S
C2710      C2711   1.408       .  A
C2710      C2715   1.488       .  S
C2711      C2712   1.400       .  A
C2711      F2716   1.357       .  S
C2712      C2713   1.407       .  A
C2712      H2717   1.083       .  S
C2713      C2714   1.413       .  A
C2714      F2718   1.358       .  S
C2715      C2720   1.409       .  A
C2715      C2724   1.405       .  A
C2720      C2721   1.398       .  A
C2720      F2725   1.358       .  S
C2721      C2722   1.405       .  A
C2721      H2726   1.083       .  S
C2722      C2723   1.408       .  A
C2723      C2724   1.400       .  A
C2723      F2727   1.357       .  S
C2724      H2728   1.083       .  S
