geometry optimzed in LAMMPS
_audit_creation_date              2020-11-30 
_audit_creation_method            'lammps2cif' 
_symmetry_space_group_name_H-M    'P1' 
_symmetry_Int_Tables_number       1 
_symmetry_cell_setting            triclinic 
loop_ 
_symmetry_equiv_pos_as_xyz 
  x,y,z 
_cell_length_a                    28.00324652 
_cell_length_b                    28.290025890773826 
_cell_length_c                    28.257908356871365 
_cell_angle_alpha                 90.53780028248782 
_cell_angle_beta                  90.18440019895569 
_cell_angle_gamma                 89.82602859912008 
loop_ 
_atom_site_label 
_atom_site_type_symbol 
_atom_site_fract_x 
_atom_site_fract_y 
_atom_site_fract_z 
_atom_site_charge 
C1          C  0.83912234  0.83845650  0.83025090     0.85300
C2          C  0.87193025  0.80724779  0.85996736    -0.55000
C3          C  0.90103283  0.83198412  0.88980603     0.08200
C4          C  0.89620465  0.88557941  0.88658651     0.19100
C5          C  0.81336736  0.87083171  0.86597404    -0.55700
C6          C  0.84341218  0.89455254  0.89600784     0.08300
C7          C  0.87305005  0.87224848  0.80454777    -0.55200
C8          C  0.90245907  0.89664836  0.83429117     0.08900
H9          H  0.87116750  0.76886090  0.85847631     0.13400
H10         H  0.92046475  0.90539887  0.91072391    -0.00900
H11         H  0.77477634  0.87400979  0.86815733     0.13700
H12         H  0.87330412  0.87892056  0.76691231     0.13500
N13         N  0.77336005  0.91166683  0.43168483    -0.07300
N14         N  0.74450535  0.91323567  0.46832351    -0.59500
N15         N  0.80304398  0.95844497  0.32675674    -0.07000
N16         N  0.79171879  0.99444535  0.29859083    -0.61600
N17         N  0.77089958  0.92477888  0.32226192    -0.06600
N18         N  0.73801852  0.93698480  0.29044130    -0.59400
N19         N  0.80676096  0.94408296  0.43584766    -0.06300
N20         N  0.80137386  0.96817910  0.47550212    -0.61900
C21         C  0.76260578  0.94836190  0.49559359     0.94800
C22         C  0.75118583  0.98059679  0.27546188     0.94600
N23         N  0.95078465  0.91894707  0.32673055    -0.07500
N24         N  0.98000028  0.92590508  0.29125537    -0.60000
N25         N  0.92082940  0.95002216  0.43702845    -0.05600
N26         N  0.93235091  0.98324876  0.46872929    -0.61300
N27         N  0.95423923  0.91703472  0.43571560    -0.07600
N28         N  0.98891108  0.92780932  0.46650947    -0.60300
N29         N  0.91765492  0.95210542  0.32816297    -0.05300
N30         N  0.92384097  0.98236382  0.29368838    -0.61400
Mn31       Mn  0.86197472  0.95252176  0.38206355     1.18400
C32         C  0.96258307  0.96520213  0.27082025     0.96900
C33         C  0.97486055  0.96920574  0.48745232     0.97600
N34         N  0.77580794  0.81331309  0.31194635    -0.07600
N35         N  0.74772030  0.81081290  0.27462341    -0.63900
N36         N  0.80204631  0.76737205  0.41903558    -0.06400
N37         N  0.79129507  0.73268010  0.44868531    -0.64600
N38         N  0.76880878  0.80039388  0.42068337    -0.07100
N39         N  0.73504334  0.78859021  0.45138323    -0.64100
N40         N  0.80885383  0.78021194  0.30998892    -0.06000
N41         N  0.80381032  0.75445108  0.27127943    -0.64800
Mn42       Mn  0.77094341  0.86257282  0.37154382     1.10700
C43         C  0.76583668  0.77420001  0.24932562     0.98100
C44         C  0.74931004  0.74621100  0.46895982     0.98200
N45         N  0.94947599  0.80200104  0.42646135    -0.07100
N46         N  0.98253997  0.78857057  0.45662284    -0.62500
N47         N  0.92244423  0.77449565  0.31373710    -0.06400
N48         N  0.93467605  0.74229569  0.28126806    -0.59200
N49         N  0.95666331  0.80609246  0.31862823    -0.07700
N50         N  0.99293361  0.79511794  0.29011471    -0.62000
N51         N  0.91623165  0.76927222  0.42231002    -0.06700
N52         N  0.92594302  0.73316649  0.44988829    -0.59200
Mn53       Mn  0.95378603  0.86119470  0.37725690     1.20200
Mn54       Mn  0.86211873  0.77182216  0.36621363     1.10100
Cl55       Cl  0.86230793  0.86203379  0.37439675    -0.87200
C56         C  0.96707593  0.74600321  0.47130915     0.95100
C57         C  0.97868135  0.75557260  0.26618668     0.94900
N58         N  0.96777483  0.43114504  0.92367579    -0.07300
N59         N  0.00100175  0.46314331  0.93474552    -0.59500
N60         N  0.93355132  0.32137894  0.95213894    -0.07000
N61         N  0.94332975  0.28858911  0.98338356    -0.61600
N62         N  0.96672344  0.32240846  0.91915387    -0.06600
N63         N  0.99981707  0.29039592  0.92722417    -0.59400
N64         N  0.93472074  0.43031686  0.95689955    -0.06300
N65         N  0.94533144  0.46180676  0.99080432    -0.61900
C66         C  0.98681413  0.48257174  0.97676605     0.94800
C67         C  0.98426133  0.26962264  0.96691004     0.94600
N68         N  0.78535208  0.31581561  0.92246676    -0.07500
N69         N  0.75159265  0.28450371  0.93303917    -0.60000
N70         N  0.82002708  0.42666454  0.95243585    -0.05600
N71         N  0.81206034  0.46090919  0.98315822    -0.61300
N72         N  0.78630270  0.42547621  0.91984781    -0.07600
N73         N  0.75463548  0.45905506  0.92799223    -0.60300
N74         N  0.81765867  0.31765062  0.95658389    -0.05300
N75         N  0.80542127  0.28803988  0.99104511    -0.61400
Mn76       Mn  0.87645710  0.37391195  0.95567816     1.18400
C77         C  0.76440767  0.26660805  0.97581848     0.96900
C78         C  0.77140753  0.48108859  0.96734125     0.97600
N79         N  0.96922096  0.32122224  0.80503989    -0.07600
N80         N  0.00314342  0.29063793  0.79190813    -0.63900
N81         N  0.93114251  0.42889440  0.77665847    -0.06400
N82         N  0.94362273  0.45534911  0.74068386    -0.64600
N83         N  0.96465080  0.42948388  0.80946300    -0.07100
N84         N  0.00036694  0.45636804  0.79640302    -0.64100
N85         N  0.93443658  0.32067118  0.77353720    -0.06000
N86         N  0.94351554  0.28939408  0.73942587    -0.64800
Mn87       Mn  0.96797637  0.37613874  0.86449012     1.10700
C88         C  0.98625005  0.27023943  0.75120130     0.98100
C89         C  0.98666357  0.47248019  0.75365738     0.98200
N90         N  0.78189804  0.42470227  0.80592024    -0.07100
N91         N  0.74558196  0.45205602  0.79257319    -0.62500
N92         N  0.82290511  0.31880305  0.77601696    -0.06400
N93         N  0.81577405  0.28744984  0.74220903    -0.59200
N94         N  0.78930264  0.31632976  0.80830478    -0.07700
N95         N  0.75827457  0.28315717  0.79677090    -0.62000
N96         N  0.81661330  0.42725189  0.77464256    -0.06700
N97         N  0.80472904  0.45684513  0.74025868    -0.59200
Mn98       Mn  0.78458724  0.37039927  0.86428825     1.20200
Mn99       Mn  0.87618210  0.37433044  0.77498950     1.10100
Cl100      Cl  0.87630096  0.37381118  0.86515542    -0.87200
C101        C  0.76047612  0.47276043  0.75190560     0.95100
C102        C  0.77555819  0.26541904  0.75554379     0.94900
N103        N  0.42899244  0.78771397  0.91690630    -0.07300
N104        N  0.46456362  0.75812899  0.92497087    -0.59500
N105        N  0.31908385  0.81832709  0.95341076    -0.07000
N106        N  0.29011861  0.80536561  0.98835007    -0.61600
N107        N  0.31821732  0.78615152  0.91939357    -0.06600
N108        N  0.28796178  0.75169468  0.93029397    -0.59400
N109        N  0.42859465  0.82141206  0.94933206    -0.06300
N110        N  0.46359778  0.81593213  0.97957446    -0.61900
C111        C  0.48575444  0.77656649  0.96419388     0.94800
C112        C  0.26991626  0.76403077  0.97330735     0.94600
N113        N  0.32432984  0.96661952  0.91742106    -0.07500
N114        N  0.29594643  0.00198948  0.92914249    -0.60000
N115        N  0.43193887  0.93258340  0.95602773    -0.05600
N116        N  0.46401275  0.94132236  0.98990611    -0.61300
N117        N  0.43385192  0.96560923  0.92356872    -0.07600
N118        N  0.46733504  0.99710282  0.93484044    -0.60300
N119        N  0.32247327  0.93302578  0.94941296    -0.05300
N120        N  0.29278976  0.94479116  0.98331440    -0.61400
Mn121      Mn  0.37506444  0.87627107  0.95287725     1.18400
C122        C  0.27671690  0.98765192  0.97025146     0.96900
C123        C  0.48628144  0.98170273  0.97636882     0.97600
N124        N  0.31875818  0.79406764  0.80714284    -0.07600
N125        N  0.27898184  0.76998031  0.80231744    -0.63900
N126        N  0.43088037  0.81617195  0.77161153    -0.06400
N127        N  0.45941195  0.80242917  0.73651883    -0.64600
N128        N  0.42741106  0.78226077  0.80309188    -0.07100
N129        N  0.45280400  0.74479666  0.78928929    -0.64100
N130        N  0.32128984  0.82725706  0.77487517    -0.06000
N131        N  0.28317464  0.82660866  0.74767218    -0.64800
Mn132      Mn  0.37342914  0.78616491  0.86153945     1.10700
C133        C  0.25694219  0.79111022  0.76553780     0.98100
C134        C  0.47331739  0.75789741  0.74797076     0.98200
N135        N  0.43684232  0.96181578  0.81252927    -0.07100
N136        N  0.47249278  0.99134223  0.80866443    -0.62500
N137        N  0.32730632  0.93809576  0.77030247    -0.06400
N138        N  0.29704182  0.94909408  0.73569700    -0.59200
N139        N  0.32737772  0.97153215  0.80305568    -0.07700
N140        N  0.29778174  0.00633188  0.79041087    -0.62000
N141        N  0.43785122  0.92973568  0.77852965    -0.06700
N142        N  0.47442663  0.93733814  0.75028116    -0.59200
Mn143      Mn  0.38022620  0.96735493  0.86400633     1.20200
Mn144      Mn  0.37979012  0.87772127  0.77249253     1.10100
Cl145      Cl  0.37696738  0.87684577  0.86272572    -0.87200
C146        C  0.49585381  0.97564092  0.77010260     0.95100
C147        C  0.27844253  0.99177297  0.74834422     0.94900
C148        C  0.38810225  0.31810208  0.90717229     0.85300
C149        C  0.42615631  0.34712762  0.88127415    -0.55000
C150        C  0.40826743  0.38065968  0.85155490     0.08200
C151        C  0.35342141  0.38379822  0.85236042     0.19100
C152        C  0.35927317  0.35617373  0.93372946    -0.55700
C153        C  0.34158407  0.39025770  0.90486021     0.08300
C154        C  0.35362288  0.29987928  0.86953571    -0.55200
C155        C  0.33647076  0.33381883  0.84048859     0.08900
H156        H  0.46383241  0.34297943  0.88875193     0.13400
H157        H  0.33790214  0.41124573  0.82899416    -0.00900
H158        H  0.35328476  0.35814270  0.97147541     0.13700
H159        H  0.34309181  0.26311528  0.86600259     0.13500
C160        C  0.40293053  0.83354364  0.38954537     0.85300
C161        C  0.36900221  0.86182039  0.42219298    -0.55000
C162        C  0.34321208  0.89556084  0.39904831     0.08200
C163        C  0.35359336  0.89877690  0.34629008     0.19100
C164        C  0.37149673  0.81488277  0.34933093    -0.55700
C165        C  0.34575826  0.84901856  0.32727950     0.08300
C166        C  0.43365986  0.87220863  0.36650463    -0.55200
C167        C  0.40751011  0.90586809  0.34384063     0.08900
H168        H  0.36572372  0.85602472  0.45997659     0.13400
H169        H  0.33219629  0.92590971  0.32742816    -0.00900
H170        H  0.36922124  0.77773900  0.33943161     0.13700
H171        H  0.47227918  0.87374251  0.36704839     0.13500
C172        C  0.91952206  0.40143461  0.34104429     0.85300
C173        C  0.88386015  0.43101155  0.36917396    -0.55000
C174        C  0.84925927  0.40540742  0.39077187     0.08200
C175        C  0.85587197  0.35140679  0.38500525     0.19100
C176        C  0.94098284  0.36842931  0.37789069    -0.55700
C177        C  0.90775331  0.34096671  0.39984844     0.08300
C178        C  0.89023494  0.36880183  0.30882829    -0.55200
C179        C  0.85657266  0.34355226  0.33158840     0.08900
H180        H  0.88656432  0.46918974  0.37182255     0.13400
H181        H  0.82852533  0.32976834  0.40294147    -0.00900
H182        H  0.97880831  0.36336096  0.38396557     0.13700
H183        H  0.89520728  0.36648450  0.27071880     0.13500
N184        N  0.21608589  0.06898478  0.66749410    -0.07300
N185        N  0.25341637  0.06098552  0.69581317    -0.59500
N186        N  0.17174015  0.02876820  0.56386417    -0.07000
N187        N  0.17813550  0.99516731  0.53200565    -0.61600
N188        N  0.20336303  0.06270283  0.55861585    -0.06600
N189        N  0.23168815  0.05278188  0.52282727    -0.59400
N190        N  0.18482303  0.03441991  0.67158026    -0.06300
N191        N  0.20093411  0.00244752  0.70206165    -0.61900
C192        C  0.24347002  0.01955432  0.71793810     0.94800
C193        C  0.21537129  0.01072984  0.50639130     0.94600
N194        N  0.02359820  0.05254680  0.57277194    -0.07500
N195        N  0.98887103  0.03972445  0.54303890    -0.60000
N196        N  0.07042822  0.03455538  0.68110356    -0.05600
N197        N  0.06444322  0.00544833  0.71675087    -0.61300
N198        N  0.03670035  0.06705699  0.68115837    -0.07600
N199        N  0.00740552  0.06085444  0.71674326    -0.60300
N200        N  0.05810039  0.02075483  0.57216830    -0.05300
N201        N  0.04703902  0.98581119  0.54200979    -0.61400
Mn202      Mn  0.12131444  0.02847687  0.62233215     1.18400
C203        C  0.00356461  0.99789800  0.52369837     0.96900
C204        C  0.02522968  0.02262100  0.73898546     0.97600
N205        N  0.20391061  0.17688997  0.54965097    -0.07600
N206        N  0.23793080  0.19073704  0.51999828    -0.63900
N207        N  0.17227693  0.21452413  0.65614246    -0.06400
N208        N  0.18087109  0.24994477  0.68549636    -0.64600
N209        N  0.20697799  0.18303962  0.65766794    -0.07100
N210        N  0.24018471  0.19665451  0.68780001    -0.64100
N211        N  0.16765286  0.20669224  0.54779015    -0.06000
N212        N  0.17624927  0.24036628  0.51638240    -0.64800
Mn213      Mn  0.20874443  0.12270612  0.60840707     1.10700
C214        C  0.21997789  0.22989541  0.49840596     0.98100
C215        C  0.22317067  0.23813119  0.70506803     0.98200
N216        N  0.02825775  0.17961990  0.67124023    -0.07100
N217        N  0.99726849  0.19359958  0.70421807    -0.62500
N218        N  0.05376867  0.19647318  0.55627830    -0.06400
N219        N  0.04155399  0.22190906  0.51942242    -0.59200
N220        N  0.02175904  0.16338006  0.56353360    -0.07700
N221        N  0.98693424  0.16576571  0.53231266    -0.62000
N222        N  0.06054611  0.21273156  0.66504591    -0.06700
N223        N  0.05262330  0.24901915  0.69421721    -0.59200
Mn224      Mn  0.02654961  0.11560904  0.62257139     1.20200
Mn225      Mn  0.11325668  0.20834372  0.60588628     1.10100
Cl226      Cl  0.11761504  0.11877533  0.61483192    -0.87200
C227        C  0.01337312  0.23666199  0.71919801     0.95100
C228        C  0.00034654  0.20177142  0.50466785     0.94900
N229        N  0.06726212  0.68216549  0.20926336    -0.07300
N230        N  0.05491778  0.71132906  0.24442236    -0.59500
N231        N  0.04295729  0.57104053  0.17199543    -0.07000
N232        N  0.01483428  0.53495927  0.17968233    -0.61600
N233        N  0.07624997  0.57372781  0.20485391    -0.06600
N234        N  0.07169239  0.53943715  0.23548296    -0.59400
N235        N  0.03227773  0.67893822  0.17809931    -0.06300
N236        N  0.99540361  0.70535251  0.19225081    -0.61900
C237        C  0.01005780  0.72621585  0.23342105     0.94800
C238        C  0.03354346  0.51543444  0.21906186     0.94600
N239        N  0.06698122  0.57206305  0.02479242    -0.07500
N240        N  0.05589772  0.54101465  0.99065447    -0.60000
N241        N  0.03626992  0.68001493  0.06518893    -0.05600
N242        N  0.00440036  0.71361509  0.05935733    -0.61300
N243        N  0.06900036  0.68159491  0.03185479    -0.07600
N244        N  0.05989160  0.71636577  0.00261609    -0.60300
N245        N  0.03452349  0.57081785  0.05847350    -0.05300
N246        N  0.00106304  0.53901190  0.04745528    -0.61400
Mn247      Mn  0.03530803  0.62499753  0.11831490     1.18400
C248        C  0.01462473  0.52010288  0.00498586     0.96900
C249        C  0.01997023  0.73631940  0.02063227     0.97600
N250        N  0.18711107  0.57667865  0.20746242    -0.07600
N251        N  0.19557082  0.54356061  0.23952961    -0.63900
N252        N  0.21357576  0.68610542  0.16889830    -0.06400
N253        N  0.24055657  0.72392316  0.17194679    -0.64600
N254        N  0.18094256  0.68680827  0.20224283    -0.07100
N255        N  0.18546336  0.72501792  0.22891471    -0.64100
N256        N  0.21985218  0.57533529  0.17413040    -0.06000
N257        N  0.25137728  0.54115049  0.18348833    -0.64800
Mn258      Mn  0.12818433  0.63031290  0.20711963     1.10700
C259        C  0.23583875  0.52128127  0.22454751     0.98100
C260        C  0.22262930  0.74809045  0.20936227     0.98200
N261        N  0.18441677  0.68300862  0.02387188    -0.07100
N262        N  0.19673965  0.71188058  0.98890261    -0.62500
N263        N  0.21573000  0.57554251  0.05976000    -0.06400
N264        N  0.24912087  0.54445133  0.04901390    -0.59200
N265        N  0.18161469  0.57489441  0.02750049    -0.07700
N266        N  0.19079899  0.54316029  0.99451802    -0.62000
N267        N  0.21746848  0.68404408  0.05723100    -0.06700
N268        N  0.25184372  0.71428607  0.04585699    -0.59200
Mn269      Mn  0.12525824  0.62799426  0.02591134     1.20200
Mn270      Mn  0.21795585  0.62997054  0.11540094     1.10100
Cl271      Cl  0.12666836  0.62832108  0.11654070    -0.87200
C272        C  0.23860434  0.73210387  0.00323861     0.95100
C273        C  0.23264015  0.52429595  0.00864511     0.94900
N274        N  0.68932059  0.06054335  0.03628797    -0.07300
N275        N  0.72514573  0.04916266  0.00816044    -0.59500
N276        N  0.57530087  0.02609720  0.05836602    -0.07000
N277        N  0.54201441  0.99415180  0.04752459    -0.61600
N278        N  0.57910858  0.05686870  0.02385766    -0.06600
N279        N  0.54819330  0.04650812  0.98943776    -0.59400
N280        N  0.68531062  0.02912033  0.07029161    -0.06300
N281        N  0.71833972  0.99622880  0.06609088    -0.61900
C282        C  0.74306640  0.00925068  0.02753423     0.94800
C283        C  0.52498264  0.00722879  0.00434018     0.94600
N284        N  0.56700325  0.07040843  0.20320517    -0.07500
N285        N  0.53232593  0.06500065  0.23377357    -0.60000
N286        N  0.67666928  0.02958566  0.18321712    -0.05600
N287        N  0.70391043  0.99444874  0.19921039    -0.61300
N288        N  0.67687760  0.06512205  0.21377235    -0.07600
N289        N  0.70487423  0.05464894  0.25052062    -0.60300
N290        N  0.56728681  0.03556383  0.17199386    -0.05300
N291        N  0.53279744  0.00536904  0.18124187    -0.61400
Mn292      Mn  0.62593761  0.02898409  0.12078519     1.18400
C293        C  0.51096912  0.02469598  0.21952829     0.96900
C294        C  0.72223255  0.01050857  0.24103283     0.97600
N295        N  0.57682213  0.16712237  0.02396520    -0.07600
N296        N  0.53941814  0.16626872  0.99580723    -0.63900
N297        N  0.68323271  0.21060970  0.05765593    -0.06400
N298        N  0.71163881  0.24657713  0.04660368    -0.64600
N299        N  0.68666449  0.17679732  0.02532821    -0.07100
N300        N  0.71670954  0.19026420  0.99136313    -0.64100
N301        N  0.57257815  0.20090156  0.05603198    -0.06000
N302        N  0.53205944  0.22380027  0.05032361    -0.64800
Mn303      Mn  0.63394014  0.11527415  0.02605478     1.10700
C304        C  0.51176369  0.20148675  0.01293720     0.98100
C305        C  0.73311352  0.23370031  0.00530709     0.98200
N306        N  0.67647082  0.17938241  0.20477208    -0.07100
N307        N  0.70746042  0.19075723  0.23803580    -0.62500
N308        N  0.56659427  0.21247386  0.16836157    -0.06400
N309        N  0.53434896  0.24626880  0.17690080    -0.59200
N310        N  0.56703602  0.18206501  0.20337556    -0.07700
N311        N  0.53566400  0.19511994  0.23630746    -0.62000
N312        N  0.67673910  0.21096313  0.17080376    -0.06700
N313        N  0.70805791  0.24424039  0.18017256    -0.59200
Mn314      Mn  0.62230765  0.12419766  0.20702802     1.20200
Mn315      Mn  0.62478833  0.20979045  0.11296539     1.10100
Cl316      Cl  0.62724079  0.11955403  0.11669991    -0.87200
C317        C  0.72697587  0.23115308  0.22204209     0.95100
C318        C  0.51453117  0.23484461  0.21925941     0.94900
C319        C  0.58542560  0.59651470  0.14487792     0.85300
C320        C  0.61654287  0.63371587  0.17001754    -0.55000
C321        C  0.64640744  0.65719656  0.14038802     0.08200
C322        C  0.64294258  0.64211934  0.08862523     0.19100
C323        C  0.56010234  0.62461415  0.10555631    -0.55700
C324        C  0.59030388  0.64861298  0.07675232     0.08300
C325        C  0.62062982  0.56456510  0.11802210    -0.55200
C326        C  0.65038885  0.58866646  0.08893364     0.08900
H327        H  0.61517747  0.64089306  0.20782800     0.13400
H328        H  0.66768696  0.66158593  0.06522622    -0.00900
H329        H  0.52205949  0.62962382  0.10177333     0.13700
H330        H  0.62126299  0.52629435  0.12085133     0.13500
C331        C  0.15027628  0.66279607  0.65432409     0.85300
C332        C  0.12990761  0.61921512  0.67891487    -0.55000
C333        C  0.11173299  0.58628999  0.64836642     0.08200
C334        C  0.11561861  0.59942895  0.59609774     0.19100
C335        C  0.18730250  0.64204267  0.61980303    -0.55700
C336        C  0.16911276  0.60898261  0.58930035     0.08300
C337        C  0.10955754  0.68081007  0.62352412    -0.55200
C338        C  0.09194227  0.64801253  0.59298447     0.08900
H339        H  0.12786249  0.61431579  0.71673067     0.13400
H340        H  0.10035684  0.57265027  0.57138731    -0.00900
H341        H  0.22450228  0.65274307  0.61954254     0.13700
H342        H  0.09718811  0.71728674  0.62402667     0.13500
N343        N  0.26804106  0.31539234  0.41690793    -0.07300
N344        N  0.23289158  0.28590095  0.42842111    -0.59500
N345        N  0.30925995  0.42147265  0.44957235    -0.07000
N346        N  0.30498702  0.45609097  0.48063693    -0.61600
N347        N  0.27637402  0.42496984  0.41643769    -0.06600
N348        N  0.24873816  0.46202344  0.42464806    -0.59400
N349        N  0.30275715  0.31210290  0.44832551    -0.06300
N350        N  0.29230450  0.28004891  0.48071853    -0.61900
C351        C  0.24874950  0.26330259  0.46804448     0.94800
C352        C  0.26730374  0.48129712  0.46470989     0.94600
N353        N  0.45596561  0.41689585  0.42405723    -0.07500
N354        N  0.49091346  0.44508353  0.43927567    -0.60000
N355        N  0.41610361  0.30827535  0.44656438    -0.05600
N356        N  0.42339212  0.27370854  0.47660764    -0.61300
N357        N  0.44987515  0.30853737  0.41430714    -0.07600
N358        N  0.48059818  0.27402999  0.42146426    -0.60300
N359        N  0.42101538  0.41695067  0.45511519    -0.05300
N360        N  0.43102984  0.44575392  0.49111405    -0.61400
Mn361      Mn  0.36213074  0.36446425  0.45058893     1.18400
C362        C  0.47460718  0.46358161  0.48090440     0.96900
C363        C  0.46331958  0.25232075  0.46008277     0.97600
N364        N  0.27477381  0.42737771  0.30199974    -0.07600
N365        N  0.24356081  0.46144454  0.29164610    -0.63900
N366        N  0.30606266  0.31673940  0.26970896    -0.06400
N367        N  0.29339980  0.28668767  0.23584779    -0.64600
N368        N  0.27269826  0.31865167  0.30260108    -0.07100
N369        N  0.23733084  0.29003421  0.29190435    -0.64100
N370        N  0.30843944  0.42568987  0.26943179    -0.06000
N371        N  0.30057450  0.45854181  0.23683186    -0.64800
Mn372      Mn  0.27174315  0.37171067  0.35950459     1.10700
C373        C  0.26000954  0.48104639  0.25090660     0.98100
C374        C  0.25046620  0.27026197  0.25037337     0.98200
N375        N  0.45633624  0.31252324  0.30266718    -0.07100
N376        N  0.49193000  0.28329316  0.29167213    -0.62500
N377        N  0.42177778  0.42197585  0.27599928    -0.06400
N378        N  0.43051748  0.45644823  0.24643958    -0.59200
N379        N  0.45423206  0.42113106  0.30984721    -0.07700
N380        N  0.48590104  0.45489233  0.30366706    -0.62000
N381        N  0.42462042  0.31367475  0.26802832    -0.06700
N382        N  0.43936485  0.28595099  0.23241904    -0.59200
Mn383      Mn  0.45500998  0.36496011  0.36272488     1.20200
Mn384      Mn  0.36519913  0.36892570  0.26967362     1.10100
Cl385      Cl  0.36344596  0.36729695  0.36047557    -0.87200
C386        C  0.48121047  0.26644056  0.24783649     0.95100
C387        C  0.47025141  0.47692668  0.26426424     0.94900
N388        N  0.52160893  0.66882079  0.66994497    -0.07300
N389        N  0.48861781  0.68193139  0.70129446    -0.59500
N390        N  0.55521272  0.69102604  0.55744484    -0.07000
N391        N  0.54790942  0.71782926  0.52039667    -0.61600
N392        N  0.52174257  0.65860690  0.56046873    -0.06600
N393        N  0.49087953  0.66293519  0.52540734    -0.59400
N394        N  0.55370483  0.70252142  0.66570407    -0.06300
N395        N  0.54255700  0.73910906  0.69338988    -0.61900
C396        C  0.50224465  0.72581753  0.71611974     0.94800
C397        C  0.50816090  0.69962307  0.50038072     0.94600
N398        N  0.70324214  0.66623910  0.55647361    -0.07500
N399        N  0.73704664  0.67716176  0.52539458    -0.60000
N400        N  0.66739333  0.69987830  0.66468856    -0.05600
N401        N  0.67577796  0.73308616  0.69656435    -0.61300
N402        N  0.70127178  0.66745015  0.66554436    -0.07600
N403        N  0.73347030  0.67805941  0.69789531    -0.60300
N404        N  0.66908589  0.69836269  0.55570719    -0.05300
N405        N  0.67928781  0.73152170  0.52424401    -0.61400
Mn406      Mn  0.61119926  0.69893081  0.61076919     1.18400
C407        C  0.72172205  0.71796566  0.50508516     0.96900
C408        C  0.71650666  0.71840518  0.71743272     0.97600
N409        N  0.52012592  0.54675375  0.56626290    -0.07600
N410        N  0.48620269  0.53431407  0.53560835    -0.63900
N411        N  0.56042963  0.52268421  0.67460611    -0.06400
N412        N  0.55377428  0.49129002  0.70790638    -0.64600
N413        N  0.52605231  0.55455943  0.67527188    -0.07100
N414        N  0.49508903  0.54503219  0.70907637    -0.64100
N415        N  0.55513584  0.51556062  0.56526055    -0.06000
N416        N  0.54586936  0.48190658  0.53341363    -0.64800
Mn417      Mn  0.52099109  0.60728954  0.61844318     1.10700
C418        C  0.50290080  0.49411916  0.51462880     0.98100
C419        C  0.51319085  0.50561371  0.72941878     0.98200
N420        N  0.70777171  0.55368441  0.66898178    -0.07100
N421        N  0.74369846  0.54265462  0.69787346    -0.62500
N422        N  0.66834898  0.51975253  0.56286505    -0.06400
N423        N  0.67632592  0.48687856  0.53054521    -0.59200
N424        N  0.70057218  0.55341965  0.56025002    -0.07700
N425        N  0.73086143  0.54447108  0.52581069    -0.62000
N426        N  0.67405713  0.52141171  0.67177330    -0.06700
N427        N  0.68614756  0.48870929  0.70313422    -0.59200
Mn428      Mn  0.70431688  0.61020754  0.61286191     1.20200
Mn429      Mn  0.61445348  0.51898533  0.61871048     1.10100
Cl430      Cl  0.61276338  0.60886841  0.61541193    -0.87200
C431        C  0.72953870  0.50240297  0.71978269     0.95100
C432        C  0.71496546  0.50319379  0.50752931     0.94900
C433        C  0.59198260  0.14311253  0.57625814     0.85300
C434        C  0.56545488  0.11675587  0.61527251    -0.55000
C435        C  0.59482996  0.09588203  0.64722917     0.08200
C436        C  0.64769100  0.10188715  0.63769711     0.19100
C437        C  0.62628147  0.17691481  0.60215529    -0.55700
C438        C  0.65471552  0.15516568  0.63462852     0.08300
C439        C  0.62481152  0.10483263  0.55459093    -0.55200
C440        C  0.65348649  0.08360715  0.58739282     0.08900
H441        H  0.52680267  0.11377552  0.61683600     0.13400
H442        H  0.67120044  0.08396924  0.66379616    -0.00900
H443        H  0.62685590  0.21484328  0.59648280     0.13700
H444        H  0.62478328  0.09317877  0.51801308     0.13500
C445        C  0.07549800  0.07360822  0.14166329     0.85300
C446        C  0.11359442  0.04879164  0.11106735    -0.55000
C447        C  0.14098638  0.07948039  0.08615413     0.08200
C448        C  0.12871601  0.13133831  0.09363624     0.19100
C449        C  0.10437987  0.10825280  0.17240787    -0.55700
C450        C  0.13197080  0.13861884  0.14729771     0.08300
C451        C  0.04761102  0.10426948  0.10700798    -0.55200
C452        C  0.07555765  0.13387604  0.08172705     0.08900
H453        H  0.12007687  0.01114806  0.10881527     0.13400
H454        H  0.15105399  0.15595967  0.07287906    -0.00900
H455        H  0.10340763  0.10837093  0.21084707     0.13700
H456        H  0.00902373  0.10293571  0.10298252     0.13500
C457        C  0.23842554  0.21315967  0.18393040    -0.27500
C458        C  0.21931337  0.23845246  0.22244868    -0.15600
C459        C  0.17048558  0.23292287  0.23376682     0.35000
C460        C  0.14260708  0.20103784  0.20789217    -0.27000
C461        C  0.16215678  0.17453001  0.17065140    -0.16200
C462        C  0.21028131  0.18111601  0.15804867     0.36100
N463        N  0.23128025  0.15401450  0.12041640    -0.90500
H464        H  0.27565829  0.21729221  0.17455430     0.17200
H465        H  0.10531855  0.19685585  0.21715535     0.17200
N466        N  0.14866662  0.25975695  0.27118092    -0.89500
H467        H  0.25998310  0.13483572  0.13424672     0.34600
H468        H  0.24466619  0.17752121  0.09542155     0.39700
H469        H  0.13456012  0.23611311  0.29565279     0.39300
H470        H  0.12036545  0.27917840  0.25683592     0.34200
C471        C  0.55527900  0.16161512  0.49517015    -0.27500
C472        C  0.55713501  0.16917274  0.54453193    -0.15600
C473        C  0.52500095  0.20205115  0.56532400     0.35000
C474        C  0.49241353  0.22618441  0.53717614    -0.27000
C475        C  0.49193037  0.21967931  0.48817749    -0.16200
C476        C  0.52306952  0.18684023  0.46695181     0.36100
N477        N  0.52200461  0.17900724  0.41678718    -0.90500
H478        H  0.57891412  0.13710320  0.47753954     0.17200
H479        H  0.46900488  0.25202115  0.55372615     0.17200
N480        N  0.52581286  0.21163326  0.61525626    -0.89500
H481        H  0.51480034  0.14323279  0.41054041     0.34600
H482        H  0.55595931  0.18621131  0.40343286     0.39700
H483        H  0.49202649  0.20416732  0.62890090     0.39300
H484        H  0.53240531  0.24767645  0.62040896     0.34200
C485        C  0.18015958  0.57422693  0.50926769    -0.27500
C486        C  0.19835662  0.58238633  0.55487819    -0.15600
C487        C  0.24202200  0.56159431  0.56826845     0.35000
C488        C  0.26557735  0.53144979  0.53665430    -0.27000
C489        C  0.24570975  0.52040254  0.49222543    -0.16200
C490        C  0.20351141  0.54351570  0.47772887     0.36100
N491        N  0.18352562  0.53514020  0.43171088    -0.90500
H492        H  0.14691896  0.59070100  0.49850224     0.17200
H493        H  0.29828140  0.51454436  0.54830003     0.17200
N494        N  0.26102589  0.56831972  0.61498285    -0.89500
H495        H  0.18109210  0.56755490  0.41437461     0.34600
H496        H  0.14891917  0.52210025  0.43594909     0.39700
H497        H  0.29538077  0.58232180  0.61193979     0.39300
H498        H  0.26386845  0.53526050  0.63101109     0.34200
C499        C  0.50396607  0.56774907  0.17403473    -0.27500
C500        C  0.55408927  0.56909153  0.17904292    -0.15600
C501        C  0.57531974  0.54322249  0.21628315     0.35000
C502        C  0.54693020  0.51568907  0.24583427    -0.27000
C503        C  0.49752483  0.51277068  0.23873207    -0.16200
C504        C  0.47560143  0.54030899  0.20357674     0.36100
N505        N  0.42455038  0.53977412  0.19741551    -0.90500
H506        H  0.48561548  0.58688872  0.14689786     0.17200
H507        H  0.56408093  0.49471704  0.27295596     0.17200
N508        N  0.62602257  0.54371263  0.22339249    -0.89500
H509        H  0.41403787  0.56135380  0.16937491     0.34600
H510        H  0.40938274  0.55435425  0.22801383     0.39700
H511        H  0.63864160  0.50899212  0.22053618     0.39300
H512        H  0.63285076  0.55580815  0.25783655     0.34200
C513        C  0.80035706  0.33411769  0.26568776    -0.27500
C514        C  0.82240493  0.31442210  0.30540379    -0.15600
C515        C  0.81321764  0.26744847  0.31786181     0.35000
C516        C  0.78184944  0.24066215  0.29007521    -0.27000
C517        C  0.76024565  0.26015421  0.24974779    -0.16200
C518        C  0.76959983  0.30745881  0.23758312     0.36100
N519        N  0.74772294  0.32895971  0.19720158    -0.90500
H520        H  0.80710346  0.37058406  0.25634115     0.17200
H521        H  0.77500341  0.20433585  0.29974304     0.17200
N522        N  0.83685996  0.24642889  0.35748955    -0.89500
H523        H  0.77479847  0.34061714  0.17477902     0.34600
H524        H  0.72837911  0.35852427  0.20879599     0.39700
H525        H  0.81079225  0.23448243  0.38087992     0.39300
H526        H  0.85618531  0.21709563  0.34529014     0.34200
C527        C  0.95759158  0.48453915  0.24483080    -0.27500
C528        C  0.00719780  0.48263665  0.24798624    -0.15600
C529        C  0.02977203  0.45471166  0.28243346     0.35000
C530        C  0.00153702  0.42908591  0.31380778    -0.27000
C531        C  0.95139323  0.43136234  0.31100205    -0.16200
C532        C  0.92959047  0.46002342  0.27622332     0.36100
N533        N  0.87860551  0.46397317  0.27236263    -0.90500
H534        H  0.94000926  0.50676636  0.21899024     0.17200
H535        H  0.01935053  0.40760663  0.33972634     0.17200
N536        N  0.08102679  0.45261418  0.28539127    -0.89500
H537        H  0.86842641  0.45285256  0.23841890     0.34600
H538        H  0.86923795  0.49960302  0.27626654     0.39700
H539        H  0.09348066  0.43706346  0.25404173     0.39300
H540        H  0.09189710  0.43061754  0.31295335     0.34200
C541        C  0.95951197  0.27059058  0.40149395    -0.27500
C542        C  0.92280730  0.29707512  0.42300952    -0.15600
C543        C  0.90473158  0.28345075  0.46720903     0.35000
C544        C  0.92711463  0.24633754  0.49108359    -0.27000
C545        C  0.96825697  0.22522536  0.47228047    -0.16200
C546        C  0.98361583  0.23573461  0.42655083     0.36100
N547        N  0.02535061  0.21310933  0.40721103    -0.90500
H548        H  0.97174134  0.27954540  0.36635607     0.17200
H549        H  0.91590729  0.23768241  0.52665141     0.17200
N550        N  0.86681514  0.30960151  0.48938606    -0.89500
H551        H  0.03251667  0.22577601  0.37331047     0.34600
H552        H  0.01773135  0.17713694  0.40338862     0.39700
H553        H  0.88000110  0.34329013  0.49737649     0.39300
H554        H  0.85748642  0.29437643  0.52163605     0.34200
C555        C  0.75789344  0.49578628  0.43246997    -0.27500
C556        C  0.74296147  0.47504817  0.47445001    -0.15600
C557        C  0.75913168  0.42970201  0.48687086     0.35000
C558        C  0.79189842  0.40653169  0.45746662    -0.27000
C559        C  0.80941613  0.42822691  0.41672215    -0.16200
C560        C  0.79023381  0.47241995  0.40289924     0.36100
N561        N  0.80280987  0.49351944  0.35877172    -0.90500
H562        H  0.74475862  0.53050857  0.42285571     0.17200
H563        H  0.80532244  0.37249280  0.46790035     0.17200
N564        N  0.74424381  0.40849197  0.53046446    -0.89500
H565        H  0.81724287  0.52692079  0.36587835     0.34600
H566        H  0.77159369  0.49820723  0.33896599     0.39700
H567        H  0.75780720  0.42908439  0.55829800     0.39300
H568        H  0.75929017  0.37482318  0.53408154     0.34200
C569        C  0.26309513  0.83752658  0.30076640    -0.27500
C570        C  0.31176439  0.83751017  0.28998283    -0.15600
C571        C  0.32809742  0.81821169  0.24727252     0.35000
C572        C  0.29615828  0.79420597  0.21801553    -0.27000
C573        C  0.24869138  0.78714527  0.23233318    -0.16200
C574        C  0.23114037  0.81208009  0.27246359     0.36100
N575        N  0.18199984  0.81105815  0.28635918    -0.90500
H576        H  0.25066566  0.85359064  0.33349454     0.17200
H577        H  0.31005435  0.77712067  0.18644936     0.17200
N578        N  0.37771565  0.82020740  0.23524413    -0.89500
H579        H  0.17321971  0.77712669  0.29749167     0.34600
H580        H  0.16086490  0.82012201  0.25723170     0.39700
H581        H  0.38068172  0.83680354  0.20249652     0.39300
H582        H  0.39041514  0.78557503  0.23146801     0.34200
C583        C  0.41749341  0.94147475  0.26593833    -0.27500
C584        C  0.42946975  0.94184575  0.31418437    -0.15600
C585        C  0.46464258  0.97327312  0.33156999     0.35000
C586        C  0.48868789  0.00157427  0.29960061    -0.27000
C587        C  0.47939136  0.99854768  0.25085757    -0.16200
C588        C  0.44288633  0.96892459  0.23369775     0.36100
N589        N  0.43162160  0.96692367  0.18404560    -0.90500
H590        H  0.39001408  0.91773383  0.25301737     0.17200
H591        H  0.51666487  0.02454616  0.31298929     0.17200
N592        N  0.47778540  0.97694148  0.38074692    -0.89500
H593        H  0.40178788  0.94547980  0.17802272     0.34600
H594        H  0.46006930  0.95026792  0.16679151     0.39700
H595        H  0.45807027  0.95435600  0.40186457     0.39300
H596        H  0.46968937  0.01133871  0.39220203     0.34200
C597        C  0.26716219  0.90508045  0.44167769    -0.27500
C598        C  0.30781478  0.92589980  0.42231396    -0.15600
C599        C  0.31404255  0.97522585  0.42526487     0.35000
C600        C  0.28081754  0.00253617  0.44949948    -0.27000
C601        C  0.24180800  0.98165841  0.47197275    -0.16200
C602        C  0.23354661  0.93257882  0.46629783     0.36100
N603        N  0.19240079  0.91055217  0.48680638    -0.90500
H604        H  0.26210861  0.86723127  0.43809600     0.17200
H605        H  0.28728100  0.04016383  0.45304466     0.17200
N606        N  0.35546693  0.99826811  0.40721289    -0.89500
H607        H  0.19290193  0.87405096  0.48056443     0.34600
H608        H  0.16228589  0.92363359  0.46925997     0.39700
H609        H  0.35701385  0.99311943  0.37066486     0.39300
H610        H  0.38543369  0.98309585  0.42307088     0.34200
C611        C  0.43138959  0.72786929  0.46892678    -0.27500
C612        C  0.48101444  0.72483781  0.46415777    -0.15600
C613        C  0.50403789  0.75148099  0.42915226     0.35000
C614        C  0.47801536  0.78476648  0.40389736    -0.27000
C615        C  0.42937170  0.79320806  0.41350909    -0.16200
C616        C  0.40504653  0.76132265  0.44346713     0.36100
N617        N  0.35408623  0.76403280  0.44937602    -0.90500
H618        H  0.41340526  0.70608020  0.49464329     0.17200
H619        H  0.49671651  0.80363120  0.37668952     0.17200
N620        N  0.55357212  0.74516588  0.41793879    -0.89500
H621        H  0.34248484  0.73959627  0.47433440     0.34600
H622        H  0.33821857  0.75410683  0.41729843     0.39700
H623        H  0.55972934  0.70933056  0.41081080     0.39300
H624        H  0.57452395  0.75571108  0.44672415     0.34200
C625        C  0.25824931  0.32576871  0.80090415    -0.27500
C626        C  0.30789032  0.32050705  0.79929840    -0.15600
C627        C  0.32937285  0.29268194  0.76385179     0.35000
C628        C  0.30060803  0.26676938  0.73298644    -0.27000
C629        C  0.25083963  0.26918266  0.73629737    -0.16200
C630        C  0.22912963  0.30033090  0.76921480     0.36100
N631        N  0.17800941  0.30424931  0.77188276    -0.90500
H632        H  0.24226925  0.34705896  0.82874889     0.17200
H633        H  0.31718828  0.24410196  0.70658541     0.17200
N634        N  0.38047535  0.28952440  0.76085298    -0.89500
H635        H  0.16813999  0.32902118  0.79779801     0.34600
H636        H  0.16481467  0.27162736  0.78285802     0.39700
H637        H  0.39261208  0.32293898  0.75116661     0.39300
H638        H  0.39070868  0.26620983  0.73376106     0.34200
C639        C  0.31008754  0.49520275  0.97978534    -0.27500
C640        C  0.26024586  0.49150421  0.97958170    -0.15600
C641        C  0.23748554  0.45784505  0.95043441     0.35000
C642        C  0.26513792  0.42723442  0.92288049    -0.27000
C643        C  0.31490974  0.42994723  0.92433942    -0.16200
C644        C  0.33788964  0.46499606  0.95204808     0.36100
N645        N  0.38899183  0.47013026  0.95385882    -0.90500
H646        H  0.32759759  0.52182613  0.00148885     0.17200
H647        H  0.24781622  0.39963263  0.90230731     0.17200
N648        N  0.18655223  0.45318740  0.95047500    -0.89500
H649        H  0.39713024  0.50382886  0.94137159     0.34600
H650        H  0.40614911  0.44635782  0.93113506     0.39700
H651        H  0.17820109  0.41881207  0.96085544     0.39300
H652        H  0.17430497  0.45763364  0.91581461     0.34200
C653        C  0.40612652  0.27645859  0.98470846    -0.27500
C654        C  0.41036492  0.27806163  0.93503004    -0.15600
C655        C  0.43955983  0.24333074  0.91209363     0.35000
C656        C  0.46862267  0.21441125  0.93911134    -0.27000
C657        C  0.47006277  0.21947125  0.98818656    -0.16200
C658        C  0.43636905  0.24792489  0.01139538     0.36100
N659        N  0.43395900  0.24916553  0.06204331    -0.90500
H660        H  0.38155661  0.29857211  0.00402966     0.17200
H661        H  0.49335497  0.19086181  0.92109460     0.17200
N662        N  0.44278441  0.23748202  0.86169411    -0.89500
H663        H  0.39939242  0.23961535  0.07198204     0.34600
H664        H  0.43979306  0.28395679  0.07339527     0.39700
H665        H  0.45376734  0.26861315  0.84587408     0.39300
H666        H  0.41004742  0.22659635  0.84782152     0.34200
C667        C  0.42444390  0.46083202  0.82015454    -0.27500
C668        C  0.43833050  0.41311136  0.82338828    -0.15600
C669        C  0.47850505  0.39729411  0.79715238     0.35000
C670        C  0.50261172  0.42875598  0.76829984    -0.27000
C671        C  0.48803374  0.47597556  0.76407553    -0.16200
C672        C  0.44884729  0.49230365  0.79073759     0.36100
N673        N  0.43367299  0.54059363  0.78816298    -0.90500
H674        H  0.39427394  0.47387394  0.84039022     0.17200
H675        H  0.53246541  0.41535392  0.74782514     0.17200
N676        N  0.49465516  0.34922175  0.79649727    -0.89500
H677        H  0.43517307  0.55519243  0.82226386     0.34600
H678        H  0.39804271  0.54108908  0.77699456     0.39700
H679        H  0.46595572  0.32690816  0.78923947     0.39300
H680        H  0.51025341  0.34096526  0.82890741     0.34200
C681        C  0.16439623  0.70278580  0.73445479    -0.27500
C682        C  0.16987774  0.70226159  0.68490691    -0.15600
C683        C  0.19296158  0.74073382  0.66319093     0.35000
C684        C  0.21638488  0.77407167  0.69108882    -0.27000
C685        C  0.21698614  0.76979402  0.74031326    -0.16200
C686        C  0.18692231  0.73688076  0.76238915     0.36100
N687        N  0.17945527  0.73637548  0.81276758    -0.90500
H688        H  0.14256386  0.67745856  0.75248438     0.17200
H689        H  0.23767502  0.80071778  0.67376501     0.17200
N690        N  0.19456434  0.74486087  0.61267082    -0.89500
H691        H  0.14266495  0.73891479  0.81854461     0.34600
H692        H  0.19364132  0.76667640  0.82874300     0.39700
H693        H  0.17936031  0.77731782  0.60351629     0.39300
H694        H  0.23035242  0.74506025  0.60220544     0.34200
C695        C  0.21449463  0.03418859  0.07773509    -0.27500
C696        C  0.18036729  0.06333274  0.05676204    -0.15600
C697        C  0.18248765  0.07377240  0.00821758     0.35000
C698        C  0.21651241  0.05047210  0.98033582    -0.27000
C699        C  0.24750077  0.01745682  0.00075580    -0.16200
C700        C  0.24875776  0.01151616  0.05023428     0.36100
N701        N  0.28436634  0.98217714  0.07223077    -0.90500
H702        H  0.21353274  0.02827155  0.11557971     0.17200
H703        H  0.21696824  0.05592612  0.94242550     0.17200
N704        N  0.14884984  0.10586912  0.98720332    -0.89500
H705        H  0.27963612  0.98138891  0.10890497     0.34600
H706        H  0.31758640  0.99785022  0.06642043     0.39700
H707        H  0.11512306  0.09037263  0.98925318     0.39300
H708        H  0.15606788  0.11006085  0.95120925     0.34200
C709        C  0.55216179  0.71966276  0.97103150    -0.27500
C710        C  0.52043948  0.75118933  0.99308497    -0.15600
C711        C  0.51776791  0.75353713  0.04298793     0.35000
C712        C  0.54277171  0.72040261  0.06923035    -0.27000
C713        C  0.57216979  0.68690361  0.04718677    -0.16200
C714        C  0.57922232  0.68798489  0.99796552     0.36100
N715        N  0.61120156  0.65525629  0.97530050    -0.90500
H716        H  0.55463035  0.71878686  0.93276521     0.17200
H717        H  0.53773265  0.71937215  0.10720890     0.17200
N718        N  0.48719523  0.78702492  0.06686158    -0.89500
H719        H  0.64588573  0.66439069  0.98547650     0.34600
H720        H  0.60983066  0.65899367  0.93854620     0.39700
H721        H  0.50234756  0.82046893  0.06269492     0.39300
H722        H  0.48669143  0.78099765  0.10330350     0.34200
C723        C  0.52067968  0.05490803  0.74775262    -0.27500
C724        C  0.52891219  0.00597999  0.74509255    -0.15600
C725        C  0.56420825  0.98764543  0.71488224     0.35000
C726        C  0.58856492  0.01841867  0.68512358    -0.27000
C727        C  0.57672059  0.06655369  0.68487866    -0.16200
C728        C  0.54388831  0.08527741  0.71726248     0.36100
N729        N  0.53295296  0.13481877  0.71800343    -0.90500
H730        H  0.49374635  0.06947810  0.77122301     0.17200
H731        H  0.61447205  0.00435342  0.66025523     0.17200
N732        N  0.57458797  0.93805722  0.71378319    -0.89500
H733        H  0.49644595  0.13887394  0.71122793     0.34600
H734        H  0.53980871  0.14785342  0.75208159     0.39700
H735        H  0.61078258  0.93360057  0.72186841     0.38500
H736        H  0.56896358  0.92564329  0.67925752     0.34200
C737        C  0.71607398  0.20239118  0.74401440    -0.27500
C738        C  0.74840511  0.23405244  0.72410054    -0.15600
C739        C  0.75099056  0.23848960  0.67439672     0.35000
C740        C  0.72049556  0.21181119  0.64568353    -0.27000
C741        C  0.68757653  0.18096853  0.66574718    -0.16200
C742        C  0.68552607  0.17583519  0.71518242     0.36100
N743        N  0.65103198  0.14540085  0.73632510    -0.90500
H744        H  0.71363394  0.19913192  0.78212274     0.17200
H745        H  0.72210214  0.21564263  0.60757991     0.17200
N746        N  0.78282613  0.27148782  0.65291330    -0.89500
H747        H  0.62976079  0.16580947  0.75903191     0.34600
H748        H  0.66928851  0.12051438  0.75671265     0.39700
H749        H  0.76247736  0.29528483  0.63310510     0.39300
H750        H  0.80506079  0.25282994  0.62963607     0.34200
C751        C  0.06899975  0.21432423  0.05255677    -0.27500
C752        C  0.05606472  0.16682225  0.04735799    -0.15600
C753        C  0.02255920  0.15288475  0.01228979     0.35000
C754        C  0.99996601  0.18776109  0.98598959    -0.27000
C755        C  0.01163214  0.23522352  0.99267556    -0.16200
C756        C  0.04704543  0.24900987  0.02557184     0.36100
N757        N  0.06078494  0.29746994  0.03334201    -0.90500
H758        H  0.09484211  0.22486435  0.07928130     0.17200
H759        H  0.97302305  0.17775555  0.96014259     0.17200
N760        N  0.01064635  0.10431084  0.00230058    -0.89500
H761        H  0.05130784  0.30673147  0.06796991     0.34600
H762        H  0.04252251  0.32056449  0.01105950     0.39700
H763        H  0.03310148  0.08106083  0.02018503     0.39300
H764        H  0.01748720  0.09799940  0.96642708     0.34200
C765        C  0.75709266  0.52250950  0.04318458    -0.27500
C766        C  0.74378330  0.51515539  0.99564436    -0.15600
C767        C  0.70127933  0.53559272  0.97816770     0.35000
C768        C  0.67121736  0.55965411  0.00964447    -0.27000
C769        C  0.68379161  0.56500236  0.05723473    -0.16200
C770        C  0.72708315  0.54702335  0.07418132     0.36100
N771        N  0.73983139  0.55234443  0.12306778    -0.90500
H772        H  0.78971599  0.50726338  0.05710716     0.17200
H773        H  0.63707734  0.57273843  0.99747976     0.17200
N774        N  0.68819268  0.53087644  0.92910776    -0.89500
H775        H  0.77281488  0.56948558  0.12488943     0.34600
H776        H  0.74414542  0.51861243  0.13730759     0.39700
H777        H  0.71373373  0.54892507  0.90937989     0.39300
H778        H  0.65545703  0.54749899  0.92253555     0.34200
C779        C  0.06839694  0.49569642  0.73223773    -0.27500
C780        C  0.01945981  0.49619095  0.72135836    -0.15600
C781        C  0.00345796  0.51811225  0.67957606     0.35000
C782        C  0.03597907  0.54314010  0.65208697    -0.27000
C783        C  0.08377355  0.54671214  0.66612650    -0.16200
C784        C  0.10072434  0.52039263  0.70458574     0.36100
N785        N  0.15051336  0.52023922  0.71651489    -0.90500
H786        H  0.08169543  0.47695902  0.76287016     0.17200
H787        H  0.02300825  0.56292713  0.62203982     0.17200
N788        N  0.95411618  0.51707232  0.66612102    -0.89500
H789        H  0.16253031  0.48520763  0.71569357     0.34600
H790        H  0.15421629  0.53295189  0.75119185     0.39700
H791        H  0.95173177  0.50195381  0.63228924     0.39300
H792        H  0.94176482  0.55191668  0.66415908     0.34200
C793        C  0.69285822  0.76567987  0.20143090    -0.27500
C794        C  0.74017670  0.75166931  0.20984143    -0.15600
C795        C  0.75901688  0.71181067  0.18580329     0.35000
C796        C  0.72793646  0.68272083  0.15984634    -0.27000
C797        C  0.67930424  0.69359785  0.15729099    -0.16200
C798        C  0.66228268  0.73695206  0.17535463     0.36100
N799        N  0.61418457  0.75245359  0.16802688    -0.90500
H800        H  0.67846025  0.79744372  0.21776712     0.17200
H801        H  0.74102089  0.65020937  0.14401537     0.17200
N802        N  0.80879801  0.69987101  0.18965383    -0.89500
H803        H  0.59075704  0.72731143  0.18148040     0.34600
H804        H  0.60887314  0.75525336  0.13158020     0.39700
H805        H  0.82816247  0.72713335  0.17406818     0.39300
H806        H  0.81643191  0.66913556  0.17022984     0.34200
C807        C  0.98136138  0.03931799  0.23137056    -0.27500
C808        C  0.98699079  0.99028343  0.23316835    -0.15600
C809        C  0.01792716  0.96717438  0.20105275     0.35000
C810        C  0.04477420  0.99392856  0.16995864    -0.27000
C811        C  0.04251638  0.04362089  0.17096353    -0.16200
C812        C  0.00882853  0.06614191  0.20086555     0.36100
N813        N  0.00329857  0.11656706  0.20125018    -0.90500
H814        H  0.95710058  0.05741164  0.25529675     0.17200
H815        H  0.06772389  0.97478409  0.14603367     0.17200
N816        N  0.02275698  0.91673753  0.19871485    -0.89500
H817        H  0.01028106  0.12904153  0.23551779     0.34600
H818        H  0.96774739  0.12446835  0.19301925     0.39700
H819        H  0.98885128  0.90178394  0.19484860     0.39300
H820        H  0.03863003  0.90472288  0.22986118     0.34200
C821        C  0.01018111  0.65867621  0.56229596    -0.27500
C822        C  0.05949285  0.66248400  0.55552142    -0.15600
C823        C  0.07769745  0.68972791  0.51860519     0.35000
C824        C  0.04640326  0.71530039  0.49039057    -0.27000
C825        C  0.99712807  0.71389532  0.49854514    -0.16200
C826        C  0.97837437  0.68384502  0.53338508     0.36100
N827        N  0.92777196  0.68155170  0.54137916    -0.90500
H828        H  0.99673997  0.63842143  0.59170307     0.17200
H829        H  0.06087647  0.73752459  0.46290537     0.17200
N830        N  0.12821911  0.69365042  0.51170775    -0.89500
H831        H  0.92039417  0.65988867  0.57021852     0.34600
H832        H  0.91239724  0.66499613  0.51185512     0.39700
H833        H  0.13759015  0.72925439  0.51527719     0.39300
H834        H  0.13594092  0.68284676  0.47707720     0.34200
C835        C  0.66004604  0.00148691  0.55967332    -0.27500
C836        C  0.68258866  0.04232225  0.57649087    -0.15600
C837        C  0.73240021  0.04431875  0.57996345     0.35000
C838        C  0.75941873  0.00853675  0.55874362    -0.27000
C839        C  0.73667583  0.97126950  0.53453869    -0.16200
C840        C  0.68693668  0.96490356  0.53951574     0.36100
N841        N  0.66362172  0.92347623  0.52093829    -0.90500
H842        H  0.62139479  0.99938109  0.56004340     0.17200
H843        H  0.79787241  0.01243529  0.55714473     0.17200
N844        N  0.75539230  0.08425702  0.60155372    -0.89500
H845        H  0.62679969  0.92528538  0.52676183     0.34600
H846        H  0.67620023  0.89455777  0.54015832     0.39700
H847        H  0.77723079  0.10000337  0.57629936     0.39300
H848        H  0.77723855  0.07191230  0.62889821     0.34200
C849        C  0.79031696  0.90161092  0.96461990    -0.27500
C850        C  0.82562864  0.92204053  0.93659497    -0.15600
C851        C  0.84010362  0.96888071  0.94543686     0.35000
C852        C  0.81435553  0.99653883  0.97784061    -0.27000
C853        C  0.77557187  0.97740323  0.00219943    -0.16200
C854        C  0.76471697  0.92885954  0.99724681     0.36100
N855        N  0.72558923  0.90815736  0.02250621    -0.90500
H856        H  0.78068314  0.86490349  0.95886829     0.17200
H857        H  0.82335163  0.03353643  0.98249611     0.17200
N858        N  0.87918002  0.98914907  0.92024015    -0.89500
H859        H  0.72364914  0.87179555  0.01574033     0.34600
H860        H  0.69401671  0.92279444  0.00919366     0.39700
H861        H  0.86685558  0.01956462  0.90333226     0.39300
H862        H  0.90492390  0.99964610  0.94504004     0.34200
C863        C  0.98387465  0.92422883  0.81795672    -0.27500
C864        C  0.93470964  0.93297561  0.81723640    -0.15600
C865        C  0.91663006  0.97476624  0.79720842     0.35000
C866        C  0.94803078  0.00624575  0.77653717    -0.27000
C867        C  0.99688089  0.99545159  0.77279728    -0.16200
C868        C  0.01523159  0.95492525  0.79520405     0.36100
N869        N  0.06517943  0.94400800  0.79361647    -0.90500
H870        H  0.99762120  0.89213278  0.83365549     0.17200
H871        H  0.93325109  0.03738815  0.75985787     0.17200
N872        N  0.86648128  0.98512345  0.79539383    -0.89500
H873        H  0.06927041  0.91084007  0.77744489     0.34600
H874        H  0.07769076  0.94158468  0.82840329     0.39700
H875        H  0.85246114  0.98320872  0.82947585     0.39300
H876        H  0.84951526  0.95972609  0.77430392     0.34200
C877        C  0.81289991  0.80321375  0.75128166    -0.27500
C878        C  0.80551913  0.80854510  0.80032109    -0.15600
C879        C  0.76890016  0.78179769  0.82199268     0.35000
C880        C  0.73887288  0.75351998  0.79418529    -0.27000
C881        C  0.74626416  0.74965089  0.74560158    -0.16200
C882        C  0.78355497  0.77410691  0.72379427     0.36100
N883        N  0.79202638  0.76836068  0.67384618    -0.90500
H884        H  0.84245825  0.81976848  0.73382066     0.17200
H885        H  0.71066455  0.73345620  0.81075648     0.17200
N886        N  0.76291248  0.78217788  0.87235942    -0.89500
H887        H  0.82163560  0.78804237  0.66334464     0.34600
H888        H  0.76254248  0.78229508  0.65590854     0.39700
H889        H  0.76688151  0.74755832  0.88443694     0.39300
H890        H  0.72808626  0.79329160  0.87988153     0.34200
C891        C  0.97740107  0.82523210  0.93253808    -0.27500
C892        C  0.93041460  0.80959309  0.92603485    -0.15600
C893        C  0.91138123  0.77428234  0.95528283     0.35000
C894        C  0.94107474  0.75304027  0.98852630    -0.27000
C895        C  0.98901335  0.76640498  0.99270068    -0.16200
C896        C  0.00710029  0.80368225  0.96547762     0.36100
N897        N  0.05506440  0.82047168  0.97079670    -0.90500
H898        H  0.99151283  0.85336066  0.91098937     0.17200
H899        H  0.92727317  0.72441183  0.00968617     0.17200
N900        N  0.86224207  0.76008915  0.95101386    -0.89500
H901        H  0.07879620  0.79345664  0.96145159     0.34600
H902        H  0.06060356  0.82951879  0.00635558     0.39700
H903        H  0.84104633  0.78913884  0.96038220     0.39300
H904        H  0.85431226  0.73329112  0.97498462     0.34200
loop_ 
_geom_bond_atom_site_label_1 
_geom_bond_atom_site_label_2 
_geom_bond_distance 
_geom_bond_site_symmetry_2 
_ccdc_geom_bond_type 
C1            C2   1.527       .  S
C1            C7   1.539       .  S
C1            C5   1.537       .  S
C1          C878   1.518       .  S
C2            H9   1.087       .  S
C2            C3   1.361       .  D
C3            C4   1.525       .  S
C3          C892   1.459       .  S
C4            C8   1.524       .  S
C4            C6   1.523       .  S
C4           H10   1.111       .  S
C5           H11   1.086       .  S
C5            C6   1.366       .  D
C6          C850   1.467       .  S
C7           H12   1.082       .  S
C7            C8   1.360       .  D
C8          C864   1.457       .  S
N13          N14   1.316       .  A
N13          N19   1.316       .  A
N13         Mn42   2.186       .  S
N14          C21   1.351       .  A
N15          N17   1.317       .  A
N15          N16   1.335       .  A
N15         Mn31   2.276       .  S
N16          C22   1.365       .  A
N17          N18   1.332       .  A
N17         Mn42   2.254       .  S
N18          C22   1.360       .  A
N19          N20   1.315       .  A
N19         Mn31   2.187       .  S
N20          C21   1.352       .  A
C21         C839   1.465       .  S
C22         C294   1.525   1_565  S
N23          N29   1.318       .  A
N23          N24   1.313       .  A
N23         Mn53   2.181       .  S
N24          C32   1.347       .  A
N25          N26   1.332       .  A
N25          N27   1.320       .  A
N25         Mn31   2.262       .  S
N26          C33   1.361       .  A
N27          N28   1.336       .  A
N27         Mn53   2.275       .  S
N28          C33   1.365       .  A
N29          N30   1.315       .  A
N29         Mn31   2.183       .  S
N30          C32   1.351       .  A
Mn31        Cl55   2.567       .  S
C32         C808   1.458       .  S
C33         C203   1.529   1_655  S
N34          N35   1.315       .  A
N34          N40   1.315       .  A
N34         Mn42   2.180       .  S
N35          C43   1.351       .  A
N36          N38   1.317       .  A
N36          N37   1.332       .  A
N36         Mn54   2.257       .  S
N37          C44   1.362       .  A
N38          N39   1.331       .  A
N38         Mn42   2.252       .  S
N39          C44   1.360       .  A
N40          N41   1.316       .  A
N40         Mn54   2.190       .  S
N41          C43   1.351       .  A
Mn42        Cl55   2.560       .  S
C43         C794   1.467       .  S
C44         C407   1.517       .  S
N45          N46   1.314       .  A
N45          N51   1.319       .  A
N45         Mn53   2.190       .  S
N46          C56   1.350       .  A
N47          N48   1.332       .  A
N47          N49   1.318       .  A
N47         Mn54   2.253       .  S
N48          C57   1.360       .  A
N49          N50   1.333       .  A
N49         Mn53   2.266       .  S
N50          C57   1.362       .  A
N51          N52   1.318       .  A
N51         Mn54   2.191       .  S
N52          C56   1.349       .  A
Mn53        Cl55   2.563       .  S
Mn54        Cl55   2.560       .  S
C56         C825   1.459       .  S
C57         C237   1.518   1_655  S
N58          N59   1.335   1_655  A
N58          N64   1.321       .  A
N58         Mn87   2.274       .  S
N59          C66   1.364   1_455  A
N60          N62   1.319       .  A
N60          N61   1.314       .  A
N60         Mn76   2.181       .  S
N61          C67   1.347       .  A
N62          N63   1.315       .  A
N62         Mn87   2.178       .  S
N63          C67   1.345       .  A
N64          N65   1.336       .  A
N64         Mn76   2.286       .  S
N65          C66   1.365       .  A
C66         C248   1.535   1_656  S
C67         C755   1.439   1_655  S
N68          N74   1.321       .  A
N68          N69   1.334       .  A
N68         Mn98   2.266       .  S
N69          C77   1.362       .  A
N70          N71   1.314       .  A
N70          N72   1.317       .  A
N70         Mn76   2.173       .  S
N71          C78   1.349       .  A
N72          N73   1.317       .  A
N72         Mn98   2.202       .  S
N73          C78   1.353       .  A
N74          N75   1.337       .  A
N74         Mn76   2.294       .  S
N75          C77   1.367       .  A
Mn76       Cl100   2.558       .  S
C77         C305   1.534   1_556  S
C78         C766   1.467       .  S
N79          N80   1.334   1_655  A
N79          N85   1.317       .  A
N79         Mn87   2.278       .  S
N80          C88   1.366   1_455  A
N81          N83   1.317       .  A
N81          N82   1.317       .  A
N81         Mn99   2.183       .  S
N82          C89   1.349       .  A
N83          N84   1.314   1_655  A
N83         Mn87   2.179       .  S
N84          C89   1.349   1_455  A
N85          N86   1.327       .  A
N85         Mn99   2.225       .  S
N86          C88   1.354       .  A
Mn87       Cl100   2.568       .  S
C88         C227   1.510   1_655  S
C89         C780   1.465   1_655  S
N90          N91   1.332       .  A
N90          N96   1.319       .  A
N90         Mn98   2.265       .  S
N91         C101   1.362       .  A
N92          N93   1.313       .  A
N92          N94   1.315       .  A
N92         Mn99   2.170       .  S
N93         C102   1.345       .  A
N94          N95   1.319       .  A
N94         Mn98   2.194       .  S
N95         C102   1.354       .  A
N96          N97   1.329       .  A
N96         Mn99   2.238       .  S
N97         C101   1.358       .  A
Mn98       Cl100   2.570       .  S
Mn99       Cl100   2.548       .  S
C101        C431   1.511       .  S
C102        C738   1.463       .  S
N103        N104   1.320       .  A
N103        N109   1.316       .  A
N103       Mn132   2.203       .  S
N104        C111   1.356       .  A
N105        N107   1.318       .  A
N105        N106   1.335       .  A
N105       Mn121   2.272       .  S
N106        C112   1.364       .  A
N107        N108   1.332       .  A
N107       Mn132   2.254       .  S
N108        C112   1.360       .  A
N109        N110   1.308       .  A
N109       Mn121   2.156       .  S
N110        C111   1.343       .  A
C111        C710   1.458       .  S
C112        C272   1.524   1_556  S
N113        N119   1.319       .  A
N113        N114   1.317   1_565  A
N113       Mn143   2.178       .  S
N114        C122   1.348   1_545  A
N115        N116   1.333       .  A
N115        N117   1.317       .  A
N115       Mn121   2.257       .  S
N116        C123   1.362       .  A
N117        N118   1.331       .  A
N117       Mn143   2.253       .  S
N118        C123   1.361       .  A
N119        N120   1.310       .  A
N119       Mn121   2.178       .  S
N120        C122   1.347       .  A
Mn121      Cl145   2.548       .  S
C122        C699   1.453   1_566  S
C123        C283   1.520   1_566  S
N124        N125   1.314       .  A
N124        N130   1.317       .  A
N124       Mn132   2.178       .  S
N125        C133   1.350       .  A
N126        N128   1.318       .  A
N126        N127   1.330       .  A
N126       Mn144   2.250       .  S
N127        C134   1.359       .  A
N128        N129   1.331       .  A
N128       Mn132   2.244       .  S
N129        C134   1.358       .  A
N130        N131   1.313       .  A
N130       Mn144   2.178       .  S
N131        C133   1.349       .  A
Mn132      Cl145   2.567       .  S
C133        C685   1.454       .  S
C134        C396   1.508       .  S
N135        N136   1.309       .  A
N135        N141   1.316       .  A
N135       Mn143   2.159       .  S
N136        C146   1.344       .  A
N137        N138   1.330       .  A
N137        N139   1.317       .  A
N137       Mn144   2.251       .  S
N138        C147   1.359       .  A
N139        N140   1.335   1_565  A
N139       Mn143   2.271       .  S
N140        C147   1.365   1_545  A
N141        N142   1.320       .  A
N141       Mn144   2.201       .  S
N142        C146   1.356       .  A
Mn143      Cl145   2.562       .  S
Mn144      Cl145   2.552       .  S
C146        C724   1.454   1_565  S
C147        C192   1.522   1_565  S
C148        C149   1.539       .  S
C148        C154   1.522       .  S
C148        C152   1.536       .  S
C148        C654   1.517       .  S
C149        H156   1.082       .  S
C149        C150   1.366       .  D
C150        C151   1.538       .  S
C150        C668   1.486       .  S
C151        C155   1.527       .  S
C151        C153   1.530       .  S
C151        H157   1.111       .  S
C152        H158   1.081       .  S
C152        C153   1.360       .  D
C153        C643   1.452       .  S
C154        H159   1.086       .  S
C154        C155   1.355       .  D
C155        C626   1.458       .  S
C160        C161   1.543       .  S
C160        C166   1.544       .  S
C160        C164   1.526       .  S
C160        C615   1.522       .  S
C161        H168   1.086       .  S
C161        C162   1.366       .  D
C162        C163   1.523       .  S
C162        C598   1.463       .  S
C163        C167   1.526       .  S
C163        C165   1.518       .  S
C163        H169   1.111       .  S
C164        H170   1.087       .  S
C164        C165   1.358       .  D
C165        C570   1.453       .  S
C166        H171   1.083       .  S
C166        C167   1.363       .  D
C167        C584   1.463       .  S
C172        C173   1.522       .  S
C172        C178   1.529       .  S
C172        C176   1.526       .  S
C172        C531   1.502       .  S
C173        H180   1.085       .  S
C173        C174   1.361       .  D
C174        C175   1.545       .  S
C174        C559   1.480       .  S
C175        C179   1.524       .  S
C175        C177   1.539       .  S
C175        H181   1.109       .  S
C176        H182   1.082       .  S
C176        C177   1.368       .  D
C177        C542   1.469       .  S
C178        H183   1.088       .  S
C178        C179   1.352       .  D
C179        C514   1.460       .  S
N184        N185   1.335       .  A
N184        N190   1.321       .  A
N184       Mn213   2.277       .  S
N185        C192   1.363       .  A
N186        N188   1.318       .  A
N186        N187   1.315   1_545  A
N186       Mn202   2.177       .  S
N187        C193   1.349   1_565  A
N188        N189   1.315       .  A
N188       Mn213   2.200       .  S
N189        C193   1.353       .  A
N190        N191   1.332       .  A
N190       Mn202   2.260       .  S
N191        C192   1.360       .  A
C193        C601   1.468   1_545  S
N194        N200   1.318       .  A
N194        N195   1.332   1_455  A
N194       Mn224   2.263       .  S
N195        C203   1.362   1_645  A
N196        N197   1.318       .  A
N196        N198   1.316       .  A
N196       Mn202   2.197       .  S
N197        C204   1.354       .  A
N198        N199   1.313       .  A
N198       Mn224   2.178       .  S
N199        C204   1.350       .  A
N200        N201   1.336   1_545  A
N200       Mn202   2.274       .  S
N201        C203   1.365       .  A
Mn202      Cl226   2.567       .  S
C204        C867   1.468   1_445  S
N205        N206   1.333       .  A
N205        N211   1.319       .  A
N205       Mn213   2.274       .  S
N206        C214   1.364       .  A
N207        N209   1.317       .  A
N207        N208   1.317       .  A
N207       Mn225   2.182       .  S
N208        C215   1.348       .  A
N209        N210   1.315       .  A
N209       Mn213   2.193       .  S
N210        C215   1.353       .  A
N211        N212   1.331       .  A
N211       Mn225   2.243       .  S
N212        C214   1.358       .  A
Mn213      Cl226   2.562       .  S
C214        C351   1.517       .  S
C215        C629   1.461       .  S
N216        N217   1.332   1_455  A
N216        N222   1.317       .  A
N216       Mn224   2.264       .  S
N217        C227   1.363   1_655  A
N218        N219   1.315       .  A
N218        N220   1.316       .  A
N218       Mn225   2.198       .  S
N219        C228   1.351       .  A
N220        N221   1.315   1_455  A
N220       Mn224   2.160       .  S
N221        C228   1.345   1_655  A
N222        N223   1.329       .  A
N222       Mn225   2.236       .  S
N223        C227   1.357       .  A
Mn224      Cl226   2.562       .  S
Mn225      Cl226   2.551       .  S
C228        C545   1.445   1_455  S
N229        N230   1.331       .  A
N229        N235   1.318       .  A
N229       Mn258   2.247       .  S
N230        C237   1.360       .  A
N231        N233   1.316       .  A
N231        N232   1.311       .  A
N231       Mn247   2.172       .  S
N232        C238   1.351       .  A
N233        N234   1.313       .  A
N233       Mn258   2.166       .  S
N234        C238   1.346       .  A
N235        N236   1.333   1_455  A
N235       Mn247   2.268       .  S
N236        C237   1.362   1_655  A
C238        C528   1.448       .  S
N239        N245   1.319       .  A
N239        N240   1.335   1_554  A
N239       Mn269   2.276       .  S
N240        C248   1.364   1_556  A
N241        N242   1.313       .  A
N241        N243   1.318       .  A
N241       Mn247   2.173       .  S
N242        C249   1.348       .  A
N243        N244   1.314       .  A
N243       Mn269   2.189       .  S
N244        C249   1.350       .  A
N245        N246   1.335       .  A
N245       Mn247   2.272       .  S
N246        C248   1.364       .  A
Mn247      Cl271   2.561       .  S
C249        C895   1.450   1_454  S
N250        N251   1.330       .  A
N250        N256   1.317       .  A
N250       Mn258   2.238       .  S
N251        C259   1.357       .  A
N252        N254   1.315       .  A
N252        N253   1.314       .  A
N252       Mn270   2.186       .  S
N253        C260   1.351       .  A
N254        N255   1.318       .  A
N254       Mn258   2.185       .  S
N255        C260   1.352       .  A
N256        N257   1.335       .  A
N256       Mn270   2.279       .  S
N257        C259   1.367       .  A
Mn258      Cl271   2.560       .  S
C259        C373   1.522       .  S
C260        C573   1.471       .  S
N261        N262   1.335   1_554  A
N261        N267   1.319       .  A
N261       Mn269   2.278       .  S
N262        C272   1.365   1_556  A
N263        N264   1.316       .  A
N263        N265   1.318       .  A
N263       Mn270   2.191       .  S
N264        C273   1.351       .  A
N265        N266   1.313   1_554  A
N265       Mn269   2.176       .  S
N266        C273   1.347   1_556  A
N267        N268   1.332       .  A
N267       Mn270   2.256       .  S
N268        C272   1.360       .  A
Mn269      Cl271   2.561       .  S
Mn270      Cl271   2.557       .  S
C273        C640   1.455   1_554  S
N274        N275   1.319       .  A
N274        N280   1.320       .  A
N274       Mn303   2.208       .  S
N275        C282   1.354       .  A
N276        N278   1.318       .  A
N276        N277   1.333   1_545  A
N276       Mn292   2.261       .  S
N277        C283   1.363   1_565  A
N278        N279   1.331   1_554  A
N278       Mn303   2.259       .  S
N279        C283   1.360   1_556  A
N280        N281   1.315   1_545  A
N280       Mn292   2.194       .  S
N281        C282   1.348   1_565  A
C282        C853   1.463   1_545  S
N284        N290   1.317       .  A
N284        N285   1.312       .  A
N284       Mn314   2.176       .  S
N285        C293   1.347       .  A
N286        N287   1.333   1_545  A
N286        N288   1.319       .  A
N286       Mn292   2.261       .  S
N287        C294   1.362   1_565  A
N288        N289   1.334       .  A
N288       Mn314   2.270       .  S
N289        C294   1.363       .  A
N290        N291   1.320       .  A
N290       Mn292   2.199       .  S
N291        C293   1.354       .  A
Mn292      Cl316   2.566       .  S
C293        C587   1.461   1_545  S
N295        N296   1.313   1_554  A
N295        N301   1.316       .  A
N295       Mn303   2.168       .  S
N296        C304   1.347   1_556  A
N297        N299   1.320       .  A
N297        N298   1.333       .  A
N297       Mn315   2.267       .  S
N298        C305   1.361       .  A
N299        N300   1.337   1_554  A
N299       Mn303   2.286       .  S
N300        C305   1.367   1_556  A
N301        N302   1.315       .  A
N301       Mn315   2.184       .  S
N302        C304   1.350       .  A
Mn303      Cl316   2.571       .  S
C304        C657   1.452   1_554  S
N306        N307   1.316       .  A
N306        N312   1.317       .  A
N306       Mn314   2.181       .  S
N307        C317   1.351       .  A
N308        N309   1.334       .  A
N308        N310   1.317       .  A
N308       Mn315   2.264       .  S
N309        C318   1.363       .  A
N310        N311   1.331       .  A
N310       Mn314   2.252       .  S
N311        C318   1.360       .  A
N312        N313   1.313       .  A
N312       Mn315   2.185       .  S
N313        C317   1.349       .  A
Mn314      Cl316   2.559       .  S
Mn315      Cl316   2.557       .  S
C317        C517   1.464       .  S
C318        C386   1.519       .  S
C319        C320   1.536       .  S
C319        C325   1.533       .  S
C319        C323   1.542       .  S
C319        C500   1.526       .  S
C320        H327   1.086       .  S
C320        C321   1.364       .  D
C321        C322   1.523       .  S
C321        C797   1.460       .  S
C322        C326   1.526       .  S
C322        C324   1.522       .  S
C322        H328   1.110       .  S
C323        H329   1.079       .  S
C323        C324   1.363       .  D
C324        C713   1.463       .  S
C325        H330   1.086       .  S
C325        C326   1.361       .  D
C326        C769   1.455       .  S
C331        C332   1.533       .  S
C331        C337   1.522       .  S
C331        C335   1.537       .  S
C331        C682   1.509       .  S
C332        H339   1.081       .  S
C332        C333   1.363       .  D
C333        C334   1.531       .  S
C333        C783   1.462       .  S
C334        C338   1.527       .  S
C334        C336   1.536       .  S
C334        H340   1.111       .  S
C335        H341   1.086       .  S
C335        C336   1.365       .  D
C336        C486   1.473       .  S
C337        H342   1.087       .  S
C337        C338   1.354       .  D
C338        C822   1.454       .  S
N343        N344   1.335       .  A
N343        N349   1.318       .  A
N343       Mn372   2.287       .  S
N344        C351   1.367       .  A
N345        N347   1.315       .  A
N345        N346   1.314       .  A
N345       Mn361   2.186       .  S
N346        C352   1.350       .  A
N347        N348   1.320       .  A
N347       Mn372   2.198       .  S
N348        C352   1.355       .  A
N349        N350   1.328       .  A
N349       Mn361   2.231       .  S
N350        C351   1.356       .  A
C352        C489   1.475       .  S
N353        N359   1.317       .  A
N353        N354   1.332       .  A
N353       Mn383   2.262       .  S
N354        C362   1.363       .  A
N355        N356   1.316       .  A
N355        N357   1.316       .  A
N355       Mn361   2.193       .  S
N356        C363   1.352       .  A
N357        N358   1.316       .  A
N357       Mn383   2.177       .  S
N358        C363   1.349       .  A
N359        N360   1.327       .  A
N359       Mn361   2.225       .  S
N360        C362   1.355       .  A
Mn361      Cl385   2.549       .  S
C362        C418   1.505       .  S
C363        C475   1.459       .  S
N364        N365   1.333       .  A
N364        N370   1.320       .  A
N364       Mn372   2.275       .  S
N365        C373   1.365       .  A
N366        N368   1.321       .  A
N366        N367   1.322       .  A
N366       Mn384   2.222       .  S
N367        C374   1.356       .  A
N368        N369   1.314       .  A
N368       Mn372   2.190       .  S
N369        C374   1.347       .  A
N370        N371   1.332       .  A
N370       Mn384   2.256       .  S
N371        C373   1.359       .  A
Mn372      Cl385   2.571       .  S
C374        C458   1.477       .  S
N375        N376   1.329       .  A
N375        N381   1.320       .  A
N375       Mn383   2.244       .  S
N376        C386   1.356       .  A
N377        N378   1.314       .  A
N377        N379   1.318       .  A
N377       Mn384   2.191       .  S
N378        C387   1.350       .  A
N379        N380   1.319       .  A
N379       Mn383   2.191       .  S
N380        C387   1.352       .  A
N381        N382   1.336       .  A
N381       Mn384   2.280       .  S
N382        C386   1.366       .  A
Mn383      Cl385   2.565       .  S
Mn384      Cl385   2.567       .  S
C387        C503   1.468       .  S
N388        N389   1.331       .  A
N388        N394   1.319       .  A
N388       Mn417   2.259       .  S
N389        C396   1.362       .  A
N390        N392   1.317       .  A
N390        N391   1.314       .  A
N390       Mn406   2.182       .  S
N391        C397   1.348       .  A
N392        N393   1.319       .  A
N392       Mn417   2.199       .  S
N393        C397   1.353       .  A
N394        N395   1.329       .  A
N394       Mn406   2.242       .  S
N395        C396   1.356       .  A
C397        C612   1.463       .  S
N398        N404   1.318       .  A
N398        N399   1.332       .  A
N398       Mn428   2.258       .  S
N399        C407   1.362       .  A
N400        N401   1.316       .  A
N400        N402   1.318       .  A
N400       Mn406   2.187       .  S
N401        C408   1.348       .  A
N402        N403   1.315       .  A
N402       Mn428   2.191       .  S
N403        C408   1.349       .  A
N404        N405   1.331       .  A
N404       Mn406   2.250       .  S
N405        C407   1.360       .  A
Mn406      Cl430   2.553       .  S
C408        C881   1.448       .  S
N409        N410   1.330       .  A
N409        N415   1.317       .  A
N409       Mn417   2.249       .  S
N410        C418   1.360       .  A
N411        N413   1.317       .  A
N411        N412   1.314       .  A
N411       Mn429   2.192       .  S
N412        C419   1.350       .  A
N413        N414   1.322       .  A
N413       Mn417   2.206       .  S
N414        C419   1.356       .  A
N415        N416   1.329       .  A
N415       Mn429   2.243       .  S
N416        C418   1.359       .  A
Mn417      Cl430   2.572       .  S
C419        C671   1.477       .  S
N420        N421   1.332       .  A
N420        N426   1.318       .  A
N420       Mn428   2.264       .  S
N421        C431   1.362       .  A
N422        N423   1.316       .  A
N422        N424   1.317       .  A
N422       Mn429   2.187       .  S
N423        C432   1.349       .  A
N424        N425   1.315       .  A
N424       Mn428   2.181       .  S
N425        C432   1.349       .  A
N426        N427   1.329       .  A
N426       Mn429   2.241       .  S
N427        C431   1.358       .  A
Mn428      Cl430   2.565       .  S
Mn429      Cl430   2.546       .  S
C432        C556   1.452       .  S
C433        C434   1.532       .  S
C433        C439   1.542       .  S
C433        C437   1.536       .  S
C433        C472   1.517       .  S
C434        H441   1.087       .  S
C434        C435   1.358       .  D
C435        C436   1.516       .  S
C435        C727   1.449       .  S
C436        C440   1.517       .  S
C436        C438   1.524       .  S
C436        H442   1.112       .  S
C437        H443   1.087       .  S
C437        C438   1.363       .  D
C438        C741   1.463       .  S
C439        H444   1.082       .  S
C439        C440   1.366       .  D
C440        C836   1.453       .  S
C445        C446   1.539       .  S
C445        C451   1.526       .  S
C445        C449   1.534       .  S
C445        C811   1.510       .  S
C446        H453   1.081       .  S
C446        C447   1.363       .  D
C447        C448   1.519       .  S
C447        C696   1.453       .  S
C448        C452   1.527       .  S
C448        C450   1.531       .  S
C448        H454   1.110       .  S
C449        H455   1.087       .  S
C449        C450   1.363       .  D
C450        C461   1.473       .  S
C451        H456   1.087       .  S
C451        C452   1.358       .  D
C452        C752   1.456       .  S
C457        C458   1.404       .  A
C457        C462   1.402       .  A
C457        H464   1.084       .  S
C458        C459   1.415       .  A
C459        C460   1.395       .  A
C459        N466   1.433       .  S
C460        C461   1.399       .  A
C460        H465   1.084       .  S
C461        C462   1.408       .  A
C462        N463   1.432       .  S
N463        H467   1.045       .  S
N463        H468   1.046       .  S
N466        H469   1.046       .  S
N466        H470   1.046       .  S
C471        C472   1.410       .  A
C471        C476   1.400       .  A
C471        H478   1.077       .  S
C472        C473   1.417       .  A
C473        C474   1.390       .  A
C473        N480   1.434       .  S
C474        C475   1.395       .  A
C474        H479   1.084       .  S
C475        C476   1.404       .  A
C476        N477   1.433       .  S
N477        H481   1.046       .  S
N477        H482   1.045       .  S
N480        H483   1.046       .  S
N480        H484   1.046       .  S
C485        C486   1.402       .  A
C485        C490   1.401       .  A
C485        H492   1.084       .  S
C486        C487   1.408       .  A
C487        C488   1.395       .  A
C487        N494   1.433       .  S
C488        C489   1.404       .  A
C488        H493   1.084       .  S
C489        C490   1.410       .  A
C490        N491   1.432       .  S
N491        H495   1.046       .  S
N491        H496   1.046       .  S
N494        H497   1.046       .  S
N494        H498   1.046       .  S
C499        C500   1.411       .  A
C499        C504   1.397       .  A
C499        H506   1.072       .  S
C500        C501   1.416       .  A
C501        C502   1.399       .  A
C501        N508   1.433       .  S
C502        C503   1.400       .  A
C502        H507   1.084       .  S
C503        C504   1.407       .  A
C504        N505   1.440       .  S
N505        H509   1.046       .  S
N505        H510   1.045       .  S
N508        H511   1.045       .  S
N508        H512   1.046       .  S
C513        C514   1.399       .  A
C513        C518   1.389       .  A
C513        H520   1.085       .  S
C514        C515   1.403       .  A
C515        C516   1.397       .  A
C515        N522   1.432       .  S
C516        C517   1.405       .  A
C516        H521   1.084       .  S
C517        C518   1.410       .  A
C518        N519   1.433       .  S
N519        H523   1.046       .  S
N519        H524   1.046       .  S
N522        H525   1.045       .  S
N522        H526   1.046       .  S
C527        C528   1.393   1_655  A
C527        C532   1.379       .  A
C527        H534   1.084       .  S
C528        C529   1.407       .  A
C529        C530   1.399       .  A
C529        N536   1.439       .  S
C530        C531   1.407   1_455  A
C530        H535   1.076       .  S
C531        C532   1.416       .  A
C532        N533   1.436       .  S
N533        H537   1.046       .  S
N533        H538   1.046       .  S
N536        H539   1.046       .  S
N536        H540   1.045       .  S
C541        C542   1.407       .  A
C541        C546   1.391       .  A
C541        H548   1.084       .  S
C542        C543   1.407       .  A
C543        C544   1.399       .  A
C543        N550   1.435       .  S
C544        C545   1.400       .  A
C544        H549   1.084       .  S
C545        C546   1.398       .  A
C546        N547   1.438   1_655  S
N547        H551   1.046       .  S
N547        H552   1.045       .  S
N550        H553   1.046       .  S
N550        H554   1.046       .  S
C555        C556   1.394       .  A
C555        C560   1.395       .  A
C555        H562   1.085       .  S
C556        C557   1.406       .  A
C557        C558   1.398       .  A
C557        N564   1.439       .  S
C558        C559   1.401       .  A
C558        H563   1.076       .  S
C559        C560   1.417       .  A
C560        N561   1.433       .  S
N561        H565   1.046       .  S
N561        H566   1.045       .  S
N564        H567   1.045       .  S
N564        H568   1.046       .  S
C569        C570   1.398       .  A
C569        C574   1.395       .  A
C569        H576   1.085       .  S
C570        C571   1.398       .  A
C571        C572   1.390       .  A
C571        N578   1.433       .  S
C572        C573   1.406       .  A
C572        H577   1.083       .  S
C573        C574   1.418       .  A
C574        N575   1.433       .  S
N575        H579   1.043       .  S
N575        H580   1.046       .  S
N578        H581   1.045       .  S
N578        H582   1.046       .  S
C583        C584   1.403       .  A
C583        C588   1.400       .  A
C583        H590   1.083       .  S
C584        C585   1.413       .  A
C585        C586   1.390   1_565  A
C585        N592   1.439       .  S
C586        C587   1.403   1_545  A
C586        H591   1.084       .  S
C587        C588   1.406       .  A
C588        N589   1.438       .  S
N589        H593   1.047       .  S
N589        H594   1.044       .  S
N592        H595   1.040       .  S
N592        H596   1.047   1_565  S
C597        C598   1.399       .  A
C597        C602   1.402       .  A
C597        H604   1.084       .  S
C598        C599   1.408       .  A
C599        C600   1.386   1_565  A
C599        N606   1.430       .  S
C600        C601   1.400   1_545  A
C600        H605   1.084       .  S
C601        C602   1.416       .  A
C602        N603   1.438       .  S
N603        H607   1.046       .  S
N603        H608   1.045       .  S
N606        H609   1.043       .  S
N606        H610   1.043       .  S
C611        C612   1.399       .  A
C611        C616   1.401       .  A
C611        H618   1.084       .  S
C612        C613   1.408       .  A
C613        C614   1.390       .  A
C613        N620   1.434       .  S
C614        C615   1.409       .  A
C614        H619   1.078       .  S
C615        C616   1.420       .  A
C616        N617   1.439       .  S
N617        H621   1.045       .  S
N617        H622   1.045       .  S
N620        H623   1.046       .  S
N620        H624   1.043       .  S
C625        C626   1.398       .  A
C625        C630   1.404       .  A
C625        H632   1.083       .  S
C626        C627   1.404       .  A
C627        C628   1.391       .  A
C627        N634   1.436       .  S
C628        C629   1.399       .  A
C628        H633   1.084       .  S
C629        C630   1.413       .  A
C630        N631   1.438       .  S
N631        H635   1.046       .  S
N631        H636   1.045       .  S
N634        H637   1.045       .  S
N634        H638   1.046       .  S
C639        C640   1.400       .  A
C639        C644   1.392       .  A
C639        H646   1.084   1_556  S
C640        C641   1.406       .  A
C641        C642   1.394       .  A
C641        N648   1.433       .  S
C642        C643   1.397       .  A
C642        H647   1.084       .  S
C643        C644   1.413       .  A
C644        N645   1.440       .  S
N645        H649   1.046       .  S
N645        H650   1.043       .  S
N648        H651   1.046       .  S
N648        H652   1.045       .  S
C653        C654   1.410       .  A
C653        C658   1.393   1_556  A
C653        H660   1.075   1_556  S
C654        C655   1.428       .  A
C655        C656   1.385       .  A
C655        N662   1.435       .  S
C656        C657   1.393       .  A
C656        H661   1.084       .  S
C657        C658   1.399   1_556  A
C658        N659   1.433       .  S
N659        H663   1.046       .  S
N659        H664   1.045       .  S
N662        H665   1.039       .  S
N662        H666   1.042       .  S
C667        C668   1.407       .  A
C667        C672   1.404       .  A
C667        H674   1.084       .  S
C668        C669   1.418       .  A
C669        C670   1.390       .  A
C669        N676   1.432       .  S
C670        C671   1.402       .  A
C670        H675   1.084       .  S
C671        C672   1.407       .  A
C672        N673   1.432       .  S
N673        H677   1.046       .  S
N673        H678   1.046       .  S
N676        H679   1.042       .  S
N676        H680   1.042       .  S
C681        C682   1.409       .  A
C681        C686   1.392       .  A
C681        H688   1.076       .  S
C682        C683   1.414       .  A
C683        C684   1.388       .  A
C683        N690   1.434       .  S
C684        C685   1.397       .  A
C684        H689   1.084       .  S
C685        C686   1.409       .  A
C686        N687   1.440       .  S
N687        H691   1.046       .  S
N687        H692   1.044       .  S
N690        H693   1.045       .  S
N690        H694   1.046       .  S
C695        C696   1.395       .  A
C695        C700   1.388       .  A
C695        H702   1.084       .  S
C696        C697   1.407       .  A
C697        C698   1.398   1_554  A
C697        N704   1.437   1_554  S
C698        C699   1.400   1_556  A
C698        H703   1.084       .  S
C699        C700   1.410       .  A
C700        N701   1.439   1_545  S
N701        H705   1.046       .  S
N701        H706   1.046       .  S
N704        H707   1.044       .  S
N704        H708   1.046       .  S
C709        C710   1.400       .  A
C709        C714   1.401       .  A
C709        H716   1.084       .  S
C710        C711   1.413   1_556  A
C711        C712   1.387       .  A
C711        N718   1.440       .  S
C712        C713   1.397       .  A
C712        H717   1.084       .  S
C713        C714   1.406   1_554  A
C714        N715   1.434       .  S
N715        H719   1.045       .  S
N715        H720   1.046       .  S
N718        H721   1.046       .  S
N718        H722   1.046       .  S
C723        C724   1.404       .  A
C723        C728   1.387       .  A
C723        H730   1.084       .  S
C724        C725   1.403   1_545  A
C725        C726   1.397   1_565  A
C725        N732   1.432       .  S
C726        C727   1.401       .  A
C726        H731   1.084       .  S
C727        C728   1.399       .  A
C728        N729   1.434       .  S
N729        H733   1.046       .  S
N729        H734   1.045       .  S
N732        H735   1.046       .  S
N732        H736   1.045       .  S
C737        C738   1.399       .  A
C737        C742   1.396       .  A
C737        H744   1.084       .  S
C738        C739   1.413       .  A
C739        C740   1.395       .  A
C739        N746   1.433       .  S
C740        C741   1.396       .  A
C740        H745   1.084       .  S
C741        C742   1.407       .  A
C742        N743   1.432       .  S
N743        H747   1.046       .  S
N743        H748   1.045       .  S
N746        H749   1.046       .  S
N746        H750   1.045       .  S
C751        C752   1.399       .  A
C751        C756   1.389       .  A
C751        H758   1.085       .  S
C752        C753   1.417       .  A
C753        C754   1.390   1_454  A
C753        N760   1.440       .  S
C754        C755   1.394   1_655  A
C754        H759   1.085       .  S
C755        C756   1.410   1_556  A
C756        N757   1.440       .  S
N757        H761   1.045       .  S
N757        H762   1.043       .  S
N760        H763   1.042       .  S
N760        H764   1.046   1_554  S
C765        C766   1.407   1_554  A
C765        C770   1.394       .  A
C765        H772   1.083       .  S
C766        C767   1.411       .  A
C767        C768   1.398   1_556  A
C767        N774   1.438       .  S
C768        C769   1.396       .  A
C768        H773   1.080   1_554  S
C769        C770   1.398       .  A
C770        N771   1.432       .  S
N771        H775   1.045       .  S
N771        H776   1.046       .  S
N774        H777   1.046       .  S
N774        H778   1.046       .  S
C779        C780   1.404       .  A
C779        C784   1.392       .  A
C779        H786   1.084       .  S
C780        C781   1.410       .  A
C781        C782   1.397       .  A
C781        N788   1.432   1_455  S
C782        C783   1.398       .  A
C782        H787   1.083       .  S
C783        C784   1.404       .  A
C784        N785   1.433       .  S
N785        H789   1.046       .  S
N785        H790   1.046       .  S
N788        H791   1.046       .  S
N788        H792   1.046       .  S
C793        C794   1.402       .  A
C793        C798   1.388       .  A
C793        H800   1.084       .  S
C794        C795   1.413       .  A
C795        C796   1.401       .  A
C795        N802   1.437       .  S
C796        C797   1.397       .  A
C796        H801   1.082       .  S
C797        C798   1.407       .  A
C798        N799   1.430       .  S
N799        H803   1.044       .  S
N799        H804   1.044       .  S
N802        H805   1.046       .  S
N802        H806   1.046       .  S
C807        C808   1.397   1_545  A
C807        C812   1.389   1_655  A
C807        H814   1.084       .  S
C808        C809   1.411   1_655  A
C809        C810   1.389       .  A
C809        N816   1.434       .  S
C810        C811   1.407   1_565  A
C810        H815   1.076       .  S
C811        C812   1.415       .  A
C812        N813   1.434       .  S
N813        H817   1.046       .  S
N813        H818   1.046   1_455  S
N816        H819   1.046   1_455  S
N816        H820   1.044       .  S
C821        C822   1.399       .  A
C821        C826   1.404   1_455  A
C821        H828   1.083   1_455  S
C822        C823   1.401       .  A
C823        C824   1.389       .  A
C823        N830   1.434       .  S
C824        C825   1.400   1_455  A
C824        H829   1.084       .  S
C825        C826   1.410       .  A
C826        N827   1.437       .  S
N827        H831   1.046       .  S
N827        H832   1.045       .  S
N830        H833   1.046       .  S
N830        H834   1.046       .  S
C835        C836   1.397       .  A
C835        C840   1.396   1_545  A
C835        H842   1.084   1_545  S
C836        C837   1.399       .  A
C837        C838   1.394       .  A
C837        N844   1.433       .  S
C838        C839   1.405   1_545  A
C838        H843   1.084       .  S
C839        C840   1.413       .  A
C840        N841   1.437       .  S
N841        H845   1.046       .  S
N841        H846   1.046       .  S
N844        H847   1.045       .  S
N844        H848   1.046       .  S
C849        C850   1.399       .  A
C849        C854   1.395       .  A
C849        H856   1.084       .  S
C850        C851   1.407       .  A
C851        C852   1.399       .  A
C851        N858   1.432       .  S
C852        C853   1.401   1_556  A
C852        H857   1.084   1_565  S
C853        C854   1.413   1_554  A
C854        N855   1.439   1_556  S
N855        H859   1.046       .  S
N855        H860   1.046       .  S
N858        H861   1.045   1_565  S
N858        H862   1.046       .  S
C863        C864   1.398       .  A
C863        C868   1.399   1_655  A
C863        H870   1.083       .  S
C864        C865   1.408       .  A
C865        C866   1.388   1_565  A
C865        N872   1.435       .  S
C866        C867   1.405   1_545  A
C866        H871   1.083       .  S
C867        C868   1.410   1_655  A
C868        N869   1.432       .  S
N869        H873   1.046       .  S
N869        H874   1.045       .  S
N872        H875   1.043       .  S
N872        H876   1.044       .  S
C877        C878   1.408       .  A
C877        C882   1.395       .  A
C877        H884   1.076       .  S
C878        C879   1.420       .  A
C879        C880   1.397       .  A
C879        N886   1.434       .  S
C880        C881   1.392       .  A
C880        H885   1.084       .  S
C881        C882   1.402       .  A
C882        N883   1.440       .  S
N883        H887   1.045       .  S
N883        H888   1.046       .  S
N886        H889   1.046       .  S
N886        H890   1.046       .  S
C891        C892   1.400       .  A
C891        C896   1.390   1_655  A
C891        H898   1.083       .  S
C892        C893   1.409       .  A
C893        C894   1.392       .  A
C893        N900   1.439       .  S
C894        C895   1.400       .  A
C894        H899   1.084   1_556  S
C895        C896   1.408   1_655  A
C896        N897   1.433       .  S
N897        H901   1.044       .  S
N897        H902   1.046   1_556  S
N900        H903   1.045       .  S
N900        H904   1.046       .  S
