geometry optimzed in LAMMPS
_audit_creation_date              2020-11-30 
_audit_creation_method            'lammps2cif' 
_symmetry_space_group_name_H-M    'P1' 
_symmetry_Int_Tables_number       1 
_symmetry_cell_setting            triclinic 
loop_ 
_symmetry_equiv_pos_as_xyz 
  x,y,z 
_cell_length_a                    26.25841938 
_cell_length_b                    26.265372646334065 
_cell_length_c                    34.60261271405516 
_cell_angle_alpha                 89.99558650677285 
_cell_angle_beta                  90.00432129894119 
_cell_angle_gamma                 120.01810658737597 
loop_ 
_atom_site_label 
_atom_site_type_symbol 
_atom_site_fract_x 
_atom_site_fract_y 
_atom_site_fract_z 
_atom_site_charge 
O1          O  0.36859035  0.25848479  0.20350697    -0.81200
C2          C  0.25618447  0.06524789  0.30309746     0.98200
O3          O  0.23039441  0.08423919  0.28161208    -0.70300
O4          O  0.27099990  0.19492140  0.29629480    -0.73900
Al5        Al  0.26107914  0.15343124  0.24989807     1.49000
C6          C  0.31104645  0.24669411  0.30309680     0.93400
O7          O  0.42593998  0.23187223  0.29629165    -0.80100
O8          O  0.39184572  0.13430916  0.20348574    -0.73700
Al9        Al  0.39435324  0.24180252  0.24989306     1.90100
O10         O  0.41867005  0.14707948  0.28158422    -0.72700
O11         O  0.28329628  0.05659442  0.21805145    -0.72600
O12         O  0.30796400  0.07699478  0.29629326    -0.78300
O13         O  0.24440753  0.11102467  0.20350526    -0.76500
O14         O  0.33495968  0.16793727  0.25017708    -1.12600
O15         O  0.27522862  0.21954830  0.21804424    -0.71800
C16         C  0.31830075  0.25081579  0.19617875     0.98900
C17         C  0.43765953  0.19183448  0.30309010     0.95300
Al18       Al  0.34944567  0.10856892  0.24988855     1.55600
O19         O  0.35585490  0.27247486  0.28162102    -0.76400
C20         C  0.25205622  0.06841002  0.19617838     0.99500
C21         C  0.43448019  0.18458459  0.19614845     0.94400
O22         O  0.44630712  0.22765093  0.21801371    -0.81700
N23         N  0.12502074  0.12504806  0.05839797    -0.36000
N24         N  0.07899410  0.16811706  0.49923013    -0.56600
N25         N  0.12541067  0.12461452  0.43974397    -0.36000
N26         N  0.16846802  0.07857786  0.49890986    -0.56600
C27         C  0.08864621  0.13671850  0.07946272     0.27600
C28         C  0.13551886  0.08770932  0.07923227     0.27600
C29         C  0.08807934  0.13513258  0.41890843     0.27600
C30         C  0.13705861  0.08822953  0.41868167     0.27600
C31         C  0.07494710  0.19684080  0.03029366     0.36200
C32         C  0.07429387  0.19578644  0.46783122     0.36200
C33         C  0.19615535  0.07389004  0.03030576     0.36200
C34         C  0.19719461  0.07452855  0.46784545     0.36200
C35         C  0.07776827  0.10826253  0.11479727    -0.21300
C36         C  0.10721793  0.07729667  0.11463463    -0.21300
C37         C  0.07764996  0.10683282  0.38350768    -0.21300
C38         C  0.10859253  0.07735901  0.38334861    -0.21300
C39         C  0.06948815  0.24436514  0.01871256    -0.22300
C40         C  0.06909676  0.24371296  0.47883338    -0.22300
C41         C  0.24409595  0.06869889  0.01930097    -0.22300
C42         C  0.24473920  0.06908203  0.47942213    -0.22300
C43         C  0.06777824  0.17485118  0.06817909    -0.17700
C44         C  0.17308892  0.06613793  0.06792235    -0.17700
C45         C  0.17519211  0.06735594  0.42996335    -0.17700
C46         C  0.06652888  0.17271565  0.43021565    -0.17700
H47         H  0.05288222  0.11093763  0.13879205     0.15200
H48         H  0.10912995  0.05182917  0.13852586     0.15200
H49         H  0.05219067  0.10876433  0.35961412     0.15200
H50         H  0.11124994  0.05246518  0.35935611     0.15200
H51         H  0.06347282  0.27436776  0.03702625     0.13500
H52         H  0.06274998  0.27315619  0.46016066     0.13500
H53         H  0.27355527  0.06236464  0.03797229     0.13500
H54         H  0.27474921  0.06307145  0.46110588     0.13500
H55         H  0.14608844  0.14586316  0.03290396     0.26800
H56         H  0.14624151  0.14567679  0.46523546     0.26800
N57         N  0.37831547  0.50161304  0.43974657    -0.36000
N58         N  0.33479545  0.41170533  0.99923198    -0.56600
N59         N  0.37791313  0.50083791  0.05839306    -0.36000
N60         N  0.42434919  0.09074284  0.49890284    -0.56600
C61         C  0.36779260  0.45376686  0.41891431     0.27600
C62         C  0.41470779  0.04966201  0.41868028     0.27600
C63         C  0.36625430  0.45279869  0.07945894     0.27600
C64         C  0.41525200  0.04869551  0.07922663     0.27600
C65         C  0.30711237  0.37930848  0.46784140     0.36200
C66         C  0.30607387  0.37893689  0.03030355     0.36200
C67         C  0.42839759  0.12350153  0.46782943     0.36200
C68         C  0.42905910  0.12313190  0.03029003     0.36200
C69         C  0.39610628  0.47165597  0.38351475    -0.21300
C70         C  0.42558822  0.03208098  0.38335129    -0.21300
C71         C  0.39472719  0.47039912  0.11479175    -0.21300
C72         C  0.42568239  0.03082572  0.11462872    -0.21300
C73         C  0.25917182  0.32616629  0.47885586    -0.22300
C74         C  0.25852979  0.32592381  0.01873553    -0.22300
C75         C  0.43387131  0.17649758  0.47939190    -0.22300
C76         C  0.43426884  0.17625736  0.01927051    -0.22300
C77         C  0.33018346  0.39461945  0.43022384    -0.17700
C78         C  0.43556329  0.10866683  0.42995119    -0.17700
C79         C  0.43680639  0.10783468  0.06791277    -0.17700
C80         C  0.32809350  0.39378421  0.06818279    -0.17700
H81         H  0.39417212  0.44427191  0.35962382     0.15200
H82         H  0.45048198  0.05964604  0.35935633     0.15200
H83         H  0.39205777  0.44284533  0.13878835     0.15200
H84         H  0.45115079  0.05822340  0.13851793     0.15200
H85         H  0.22971751  0.29035209  0.46019259     0.13500
H86         H  0.22852610  0.28989475  0.03705756     0.13500
H87         H  0.43989708  0.21251305  0.46106545     0.13500
H88         H  0.44062795  0.21206124  0.03793161     0.13500
H89         H  0.35724381  0.50137004  0.46523187     0.26800
H90         H  0.35707802  0.50106426  0.03290438     0.26800
N91         N  0.50200573  0.37791618  0.05839304    -0.36000
N92         N  0.09113790  0.42396198  0.49923509    -0.56600
N93         N  0.50119702  0.37747885  0.43975148    -0.36000
N94         N  0.41206091  0.33433216  0.49891574    -0.56600
C95         C  0.05006213  0.41432952  0.07945194     0.27600
C96         C  0.45414458  0.36738425  0.07922453     0.26800
C97         C  0.04905408  0.41483678  0.41891938     0.27600
C98         C  0.45313558  0.36580226  0.41869102     0.27600
C99         C  0.12391984  0.42803072  0.03030412     0.36200
C100        C  0.12353050  0.42867441  0.46784578     0.36200
C101        C  0.37966392  0.30666984  0.03031115     0.36200
C102        C  0.37927301  0.30561510  0.46784912     0.36200
C103        C  0.03247235  0.42521568  0.11477634    -0.21300
C104        C  0.47203214  0.39571198  0.11461776    -0.21300
C105        C  0.03116348  0.42526189  0.38352255    -0.21300
C106        C  0.47072266  0.39428001  0.38336110    -0.21300
C107        C  0.17693406  0.43351793  0.01873772    -0.22300
C108        C  0.17668164  0.43390476  0.47885921    -0.22300
C109        C  0.32650068  0.25874298  0.01930500    -0.22300
C110        C  0.32624572  0.25809051  0.47942498    -0.22300
C111        C  0.10908364  0.43519973  0.06817979    -0.17700
C112        C  0.39498572  0.32976076  0.06792173    -0.17700
C113        C  0.39411265  0.32763311  0.42997057    -0.17700
C114        C  0.10821378  0.43641336  0.43022803    -0.17700
H115        H  0.06004277  0.45013029  0.13876496     0.15200
H116        H  0.44463716  0.39377375  0.13850779     0.15200
H117        H  0.05855778  0.45074713  0.35963601     0.15200
H118        H  0.44315094  0.39160085  0.35936823     0.15200
H119        H  0.21296859  0.43956026  0.03706106     0.13500
H120        H  0.21249421  0.44027182  0.46019384     0.13500
H121        H  0.29067792  0.22930895  0.03797350     0.13500
H122        H  0.29019761  0.22809739  0.46110851     0.13500
H123        H  0.50176958  0.35683965  0.03291327     0.26800
H124        H  0.50144286  0.35664935  0.46523664     0.26800
C125        C  0.46959105  0.19201323  0.16113390     0.02900
C126        C  0.03148247  0.22553913  0.16062005     0.02900
C127        C  0.06248563  0.22404186  0.12805483    -0.17700
C128        C  0.03293093  0.18756053  0.09654869     0.02900
C129        C  0.47055470  0.15504822  0.09662082     0.02900
C130        C  0.43984752  0.15922516  0.12835326    -0.17700
H131        H  0.39221975  0.13267206  0.12871533     0.04900
H132        H  0.11020830  0.24747344  0.12861437     0.04900
C133        C  0.27739433  0.30688066  0.16064940     0.02900
C134        C  0.31085456  0.27846927  0.16116194     0.02900
C135        C  0.34357884  0.28144393  0.12836823    -0.17700
C136        C  0.34778198  0.31632216  0.09662908     0.02900
C137        C  0.31534887  0.34623960  0.09656359     0.02900
C138        C  0.27891107  0.33936957  0.12807817    -0.17700
H139        H  0.25553347  0.36369502  0.12863581     0.04900
H140        H  0.37007917  0.26033156  0.12872706     0.04900
C141        C  0.47179731  0.19565332  0.33750510     0.02900
C142        C  0.03368808  0.22405441  0.33699204     0.02900
C143        C  0.06344777  0.22104565  0.36977323    -0.17700
C144        C  0.03275777  0.18614457  0.40150583     0.02900
C145        C  0.47038201  0.15622303  0.40157242     0.02900
C146        C  0.44080654  0.16311461  0.37006529    -0.17700
H147        H  0.39308414  0.13877918  0.36950490     0.04900
H148        H  0.11107789  0.24216356  0.36941089     0.04900
C149        C  0.27885592  0.31051624  0.33697753     0.02900
C150        C  0.30719543  0.27698881  0.33750466     0.02900
C151        C  0.33964444  0.27845576  0.37009077    -0.17700
C152        C  0.34655407  0.31491198  0.40159841     0.02900
C153        C  0.31671155  0.34741759  0.40151383     0.02900
C154        C  0.28185890  0.34325567  0.36976498    -0.17700
H155        H  0.26079094  0.36979502  0.36939503     0.04900
H156        H  0.36392628  0.25503336  0.36954647     0.04900
C157        C  0.22588393  0.03110577  0.33751085     0.02900
C158        C  0.19237485  0.46922834  0.33699654     0.02900
C159        C  0.15960566  0.43948297  0.36978193    -0.17700
C160        C  0.15542431  0.47017128  0.40151848     0.02900
C161        C  0.18791452  0.03253119  0.40158989     0.02900
C162        C  0.22438580  0.06209003  0.37008030    -0.17700
H163        H  0.24780587  0.10980012  0.36952222     0.04900
H164        H  0.13306738  0.39186577  0.36942147     0.04900
C165        C  0.22440188  0.03331808  0.16116132     0.02900
C166        C  0.19604210  0.47144485  0.16063874     0.02900
C167        C  0.16354641  0.44046339  0.12806372    -0.17700
C168        C  0.15664543  0.47002550  0.09655627     0.02900
C169        C  0.18652886  0.03238379  0.09663409     0.02900
C170        C  0.22140109  0.06306793  0.12837780    -0.17700
H171        H  0.24249727  0.11068346  0.12874583     0.04900
H172        H  0.13923771  0.39275284  0.12861426     0.04900
O173        O  0.07734682  0.30760141  0.20184376    -0.81200
C174        C  0.25121645  0.31797819  0.30195906     0.98200
O175        O  0.21996032  0.27492559  0.28008498    -0.70300
O176        O  0.11141538  0.24409249  0.29464101    -0.73900
Al177      Al  0.15381973  0.26076557  0.24824427     1.49000
C178        C  0.06878573  0.25172820  0.30197517     0.93400
O179        O  0.13466391  0.39149520  0.29464722    -0.80100
O180        O  0.23226962  0.42559755  0.20185409    -0.73700
Al181      Al  0.10892179  0.34908704  0.24824980     1.90100
O182        O  0.22803261  0.44594868  0.28012601    -0.72700
O183        O  0.27288251  0.35552772  0.21652879    -0.72600
O184        O  0.25887647  0.36825301  0.29463927    -0.78300
O185        O  0.19531051  0.27069316  0.20185002    -0.76500
O186        O  0.16831535  0.33462390  0.24796489    -1.12600
O187        O  0.08460524  0.23006545  0.21653653    -0.71800
C188        C  0.06561773  0.25584189  0.19503865     0.98900
C189        C  0.18494935  0.43412622  0.30198410     0.95300
Al190      Al  0.24219623  0.39401174  0.24825225     1.55600
O191        O  0.05695139  0.28295286  0.28010314    -0.76400
C192        C  0.24709628  0.31073074  0.19505336     0.99500
C193        C  0.19221554  0.43730500  0.19505144     0.94400
O194        O  0.14743047  0.41828923  0.21654432    -0.81700
O195        O  0.36859035  0.25848457  0.70350681    -0.81200
C196        C  0.25618454  0.06524797  0.80309748     0.98200
O197        O  0.23039450  0.08423936  0.78161217    -0.70300
O198        O  0.27099985  0.19492152  0.79629484    -0.73900
Al199      Al  0.26107913  0.15343138  0.74989813     1.49000
C200        C  0.31104651  0.24669421  0.80309673     0.93400
O201        O  0.42593992  0.23187242  0.79629169    -0.80100
O202        O  0.39184551  0.13430926  0.70348562    -0.73700
Al203      Al  0.39435323  0.24180256  0.74989302     1.90100
O204        O  0.41866996  0.14707966  0.78158419    -0.72700
O205        O  0.28329609  0.05659446  0.71805151    -0.72600
O206        O  0.30796413  0.07699497  0.79629329    -0.78300
O207        O  0.24440748  0.11102482  0.70350529    -0.76500
O208        O  0.33495964  0.16793737  0.75017711    -1.12600
O209        O  0.27522876  0.21954849  0.71804431    -0.71800
C210        C  0.31830082  0.25081578  0.69617871     0.98900
C211        C  0.43765942  0.19183461  0.80309014     0.95300
Al212      Al  0.34944560  0.10856904  0.74988853     1.55600
O213        O  0.35585487  0.27247487  0.78162091    -0.76400
C214        C  0.25205616  0.06841015  0.69617840     0.99500
C215        C  0.43448003  0.18458464  0.69614837     0.94400
O216        O  0.44630710  0.22765093  0.71801376    -0.81700
N217        N  0.12502063  0.12504798  0.55839803    -0.36000
N218        N  0.07899413  0.16811717  0.99923016    -0.56600
N219        N  0.12541055  0.12461442  0.93974402    -0.36000
N220        N  0.16846782  0.07857770  0.99890981    -0.56600
C221        C  0.08864631  0.13671860  0.57946276     0.27600
C222        C  0.13551869  0.08770914  0.57923228     0.27600
C223        C  0.08807930  0.13513257  0.91890848     0.27600
C224        C  0.13705858  0.08822950  0.91868169     0.27600
C225        C  0.07494705  0.19684073  0.53029363     0.36200
C226        C  0.07429377  0.19578648  0.96783125     0.36200
C227        C  0.19615543  0.07389000  0.53030583     0.36200
C228        C  0.19719444  0.07452836  0.96784542     0.36200
C229        C  0.07776834  0.10826272  0.61479730    -0.21300
C230        C  0.10721784  0.07729674  0.61463465    -0.21300
C231        C  0.07765000  0.10683291  0.88350762    -0.21300
C232        C  0.10859258  0.07735907  0.88334856    -0.21300
C233        C  0.06948832  0.24436522  0.51871254    -0.22300
C234        C  0.06909655  0.24371293  0.97883342    -0.22300
C235        C  0.24409612  0.06869895  0.51930099    -0.22300
C236        C  0.24473900  0.06908185  0.97942214    -0.22300
C237        C  0.06777836  0.17485130  0.56817910    -0.17700
C238        C  0.17308881  0.06613776  0.56792236    -0.17700
C239        C  0.17519213  0.06735597  0.92996330    -0.17700
C240        C  0.06652886  0.17271571  0.93021567    -0.17700
H241        H  0.05288229  0.11093795  0.63879211     0.15200
H242        H  0.10912990  0.05182933  0.63852599     0.15200
H243        H  0.05219078  0.10876445  0.85961410     0.15200
H244        H  0.11125002  0.05246528  0.85935607     0.15200
H245        H  0.06347316  0.27436789  0.53702618     0.13500
H246        H  0.06274975  0.27315616  0.96016072     0.13500
H247        H  0.27355545  0.06236464  0.53797227     0.13500
H248        H  0.27474912  0.06307129  0.96110595     0.13500
H249        H  0.14608843  0.14586315  0.53290401     0.26800
H250        H  0.14624139  0.14567672  0.96523549     0.26800
N251        N  0.37831561  0.50161302  0.93974651    -0.36000
N252        N  0.33479534  0.41170531  0.49923197    -0.56600
N253        N  0.37791294  0.50083786  0.55839297    -0.36000
N254        N  0.42434900  0.09074277  0.99890283    -0.56600
C255        C  0.36779266  0.45376680  0.91891424     0.27600
C256        C  0.41470763  0.04966190  0.91868023     0.27600
C257        C  0.36625417  0.45279864  0.57945888     0.27600
C258        C  0.41525208  0.04869554  0.57922657     0.27600
C259        C  0.30711245  0.37930848  0.96784143     0.36200
C260        C  0.30607386  0.37893677  0.53030347     0.36200
C261        C  0.42839757  0.12350154  0.96782943     0.36200
C262        C  0.42905934  0.12313200  0.53029002     0.36200
C263        C  0.39610630  0.47165594  0.88351457    -0.21300
C264        C  0.42558816  0.03208081  0.88335135    -0.21300
C265        C  0.39472707  0.47039921  0.61479163    -0.21300
C266        C  0.42568238  0.03082570  0.61462868    -0.21300
C267        C  0.25917187  0.32616627  0.97885593    -0.22300
C268        C  0.25852974  0.32592373  0.51873543    -0.22300
C269        C  0.43387122  0.17649757  0.97939193    -0.22300
C270        C  0.43426908  0.17625744  0.51927046    -0.22300
C271        C  0.33018352  0.39461942  0.93022379    -0.17700
C272        C  0.43556319  0.10866681  0.92995117    -0.17700
C273        C  0.43680656  0.10783475  0.56791273    -0.17700
C274        C  0.32809355  0.39378410  0.56818272    -0.17700
H275        H  0.39417210  0.44427206  0.85962366     0.15200
H276        H  0.45048202  0.05964595  0.85935634     0.15200
H277        H  0.39205772  0.44284546  0.63878832     0.15200
H278        H  0.45115063  0.05822321  0.63851792     0.15200
H279        H  0.22971758  0.29035200  0.96019270     0.13500
H280        H  0.22852593  0.28989456  0.53705740     0.13500
H281        H  0.43989692  0.21251310  0.96106553     0.13500
H282        H  0.44062831  0.21206142  0.53793159     0.13500
H283        H  0.35724398  0.50136998  0.96523189     0.26800
H284        H  0.35707775  0.50106419  0.53290436     0.26800
N285        N  0.50200585  0.37791638  0.55839306    -0.36000
N286        N  0.09113790  0.42396210  0.99923509    -0.56600
N287        N  0.50119711  0.37747885  0.93975147    -0.36000
N288        N  0.41206085  0.33433221  0.99891580    -0.56600
C289        C  0.05006223  0.41432953  0.57945198     0.27600
C290        C  0.45414468  0.36738439  0.57922456     0.26800
C291        C  0.04905408  0.41483657  0.91891932     0.27600
C292        C  0.45313562  0.36580233  0.91869102     0.27600
C293        C  0.12391993  0.42803076  0.53030413     0.36200
C294        C  0.12353056  0.42867454  0.96784577     0.36200
C295        C  0.37966403  0.30666979  0.53031115     0.36200
C296        C  0.37927304  0.30561524  0.96784915     0.36200
C297        C  0.03247248  0.42521565  0.61477638    -0.21300
C298        C  0.47203229  0.39571209  0.61461781    -0.21300
C299        C  0.03116344  0.42526155  0.88352249    -0.21300
C300        C  0.47072275  0.39428005  0.88336105    -0.21300
C301        C  0.17693426  0.43351796  0.51873776    -0.22300
C302        C  0.17668164  0.43390479  0.97885922    -0.22300
C303        C  0.32650063  0.25874288  0.51930505    -0.22300
C304        C  0.32624592  0.25809060  0.97942501    -0.22300
C305        C  0.10908372  0.43519979  0.56817980    -0.17700
C306        C  0.39498585  0.32976075  0.56792173    -0.17700
C307        C  0.39411269  0.32763324  0.92997056    -0.17700
C308        C  0.10821380  0.43641337  0.93022803    -0.17700
H309        H  0.06004298  0.45013026  0.63876503     0.15200
H310        H  0.44463738  0.39377388  0.63850787     0.15200
H311        H  0.05855777  0.45074689  0.85963592     0.15200
H312        H  0.44315113  0.39160112  0.85936821     0.15200
H313        H  0.21296866  0.43956020  0.53706099     0.13500
H314        H  0.21249422  0.44027171  0.96019393     0.13500
H315        H  0.29067807  0.22930898  0.53797354     0.13500
H316        H  0.29019777  0.22809729  0.96110848     0.13500
H317        H  0.50176968  0.35683995  0.53291322     0.26800
H318        H  0.50144294  0.35664951  0.96523668     0.26800
C319        C  0.46959097  0.19201331  0.66113386     0.02900
C320        C  0.03148239  0.22553905  0.66062010     0.02900
C321        C  0.06248565  0.22404180  0.62805493    -0.17700
C322        C  0.03293101  0.18756065  0.59654869     0.02900
C323        C  0.47055483  0.15504827  0.59662081     0.02900
C324        C  0.43984757  0.15922516  0.62835321    -0.17700
H325        H  0.39221976  0.13267186  0.62871522     0.04900
H326        H  0.11020829  0.24747332  0.62861456     0.04900
C327        C  0.27739452  0.30688086  0.66064942     0.02900
C328        C  0.31085462  0.27846936  0.66116194     0.02900
C329        C  0.34357878  0.28144387  0.62836820    -0.17700
C330        C  0.34778199  0.31632207  0.59662905     0.02900
C331        C  0.31534888  0.34623949  0.59656350     0.02900
C332        C  0.27891118  0.33936956  0.62807812    -0.17700
H333        H  0.25553361  0.36369515  0.62863569     0.04900
H334        H  0.37007903  0.26033138  0.62872703     0.04900
C335        C  0.47179717  0.19565332  0.83750511     0.02900
C336        C  0.03368798  0.22405447  0.83699205     0.02900
C337        C  0.06344774  0.22104563  0.86977319    -0.17700
C338        C  0.03275773  0.18614464  0.90150584     0.02900
C339        C  0.47038190  0.15622298  0.90157242     0.02900
C340        C  0.44080633  0.16311435  0.87006524    -0.17700
H341        H  0.39308403  0.13877879  0.86950483     0.04900
H342        H  0.11107779  0.24216348  0.86941078     0.04900
C343        C  0.27885602  0.31051628  0.83697743     0.02900
C344        C  0.30719559  0.27698899  0.83750457     0.02900
C345        C  0.33964444  0.27845578  0.87009071    -0.17700
C346        C  0.34655414  0.31491203  0.90159835     0.02900
C347        C  0.31671155  0.34741755  0.90151378     0.02900
C348        C  0.28185895  0.34325559  0.86976490    -0.17700
H349        H  0.26079091  0.36979496  0.86939495     0.04900
H350        H  0.36392613  0.25503317  0.86954641     0.04900
C351        C  0.22588401  0.03110580  0.83751086     0.02900
C352        C  0.19237495  0.46922833  0.83699658     0.02900
C353        C  0.15960577  0.43948295  0.86978198    -0.17700
C354        C  0.15542435  0.47017129  0.90151849     0.02900
C355        C  0.18791458  0.03253125  0.90158987     0.02900
C356        C  0.22438575  0.06209005  0.87008024    -0.17700
H357        H  0.24780573  0.10980016  0.86952204     0.04900
H358        H  0.13306753  0.39186575  0.86942155     0.04900
C359        C  0.22440190  0.03331821  0.66116133     0.02900
C360        C  0.19604206  0.47144494  0.66063877     0.02900
C361        C  0.16354627  0.44046337  0.62806379    -0.17700
C362        C  0.15664541  0.47002557  0.59655630     0.02900
C363        C  0.18652882  0.03238370  0.59663413     0.02900
C364        C  0.22140112  0.06306795  0.62837774    -0.17700
H365        H  0.24249729  0.11068351  0.62874563     0.04900
H366        H  0.13923768  0.39275293  0.62861431     0.04900
O367        O  0.07734674  0.30760136  0.70184380    -0.81200
C368        C  0.25121642  0.31797812  0.80195901     0.98200
O369        O  0.21996017  0.27492545  0.78008504    -0.70300
O370        O  0.11141535  0.24409262  0.79464107    -0.73900
Al371      Al  0.15381976  0.26076564  0.74824432     1.49000
C372        C  0.06878573  0.25172835  0.80197521     0.93400
O373        O  0.13466402  0.39149528  0.79464723    -0.80100
O374        O  0.23226954  0.42559761  0.70185414    -0.73700
Al375      Al  0.10892183  0.34908713  0.74824983     1.90100
O376        O  0.22803274  0.44594865  0.78012610    -0.72700
O377        O  0.27288270  0.35552792  0.71652886    -0.72600
O378        O  0.25887639  0.36825291  0.79463922    -0.78300
O379        O  0.19531074  0.27069333  0.70185013    -0.76500
O380        O  0.16831539  0.33462397  0.74796493    -1.12600
O381        O  0.08460532  0.23006548  0.71653654    -0.71800
C382        C  0.06561763  0.25584183  0.69503872     0.98900
C383        C  0.18494944  0.43412617  0.80198415     0.95300
Al384      Al  0.24219625  0.39401176  0.74825229     1.55600
O385        O  0.05695146  0.28295309  0.78010321    -0.76400
C386        C  0.24709648  0.31073096  0.69505343     0.99500
C387        C  0.19221553  0.43730508  0.69505149     0.94400
O388        O  0.14743040  0.41828929  0.71654432    -0.81700
O389        O  0.36859021  0.75848470  0.20350694    -0.81200
C390        C  0.25618443  0.56524781  0.30309745     0.98200
O391        O  0.23039437  0.58423914  0.28161212    -0.70300
O392        O  0.27099980  0.69492147  0.29629478    -0.73900
Al393      Al  0.26107904  0.65343126  0.24989808     1.49000
C394        C  0.31104639  0.74669412  0.30309681     0.93400
O395        O  0.42594001  0.73187245  0.29629166    -0.80100
O396        O  0.39184558  0.63430921  0.20348572    -0.73700
Al397      Al  0.39435318  0.74180261  0.24989305     1.90100
O398        O  0.41867001  0.64707967  0.28158418    -0.72700
O399        O  0.28329618  0.55659439  0.21805148    -0.72600
O400        O  0.30796401  0.57699477  0.29629322    -0.78300
O401        O  0.24440739  0.61102462  0.20350527    -0.76500
O402        O  0.33495960  0.66793734  0.25017711    -1.12600
O403        O  0.27522852  0.71954840  0.21804428    -0.71800
C404        C  0.31830065  0.75081581  0.19617874     0.98900
C405        C  0.43765948  0.69183463  0.30309011     0.95300
Al406      Al  0.34944561  0.60856900  0.24988854     1.55600
O407        O  0.35585485  0.77247494  0.28162102    -0.76400
C408        C  0.25205609  0.56840995  0.19617841     0.99500
C409        C  0.43448010  0.68458464  0.19614843     0.94400
O410        O  0.44630705  0.72765096  0.21801372    -0.81700
N411        N  0.12502075  0.62504806  0.05839799    -0.36000
N412        N  0.07899411  0.66811711  0.49923010    -0.56600
N413        N  0.12541050  0.62461437  0.43974401    -0.36000
N414        N  0.16846787  0.57857769  0.49890984    -0.56600
C415        C  0.08864629  0.63671853  0.07946272     0.27600
C416        C  0.13551879  0.58770921  0.07923227     0.27600
C417        C  0.08807928  0.63513254  0.41890842     0.27600
C418        C  0.13705851  0.58822944  0.41868173     0.27600
C419        C  0.07494717  0.69684081  0.03029365     0.36200
C420        C  0.07429385  0.69578651  0.46783120     0.36200
C421        C  0.19615535  0.57389002  0.03030577     0.36200
C422        C  0.19719450  0.57452842  0.46784546     0.36200
C423        C  0.07776818  0.60826250  0.11479724    -0.21300
C424        C  0.10721789  0.57729667  0.11463466    -0.21300
C425        C  0.07765005  0.60683290  0.38350759    -0.21300
C426        C  0.10859255  0.57735901  0.38334864    -0.21300
C427        C  0.06948836  0.74436523  0.01871257    -0.22300
C428        C  0.06909659  0.74371295  0.47883339    -0.22300
C429        C  0.24409602  0.56869902  0.01930092    -0.22300
C430        C  0.24473903  0.56908189  0.47942218    -0.22300
C431        C  0.06777835  0.67485127  0.06817909    -0.17700
C432        C  0.17308885  0.56613779  0.06792235    -0.17700
C433        C  0.17519213  0.56735598  0.42996333    -0.17700
C434        C  0.06652884  0.67271567  0.43021563    -0.17700
H435        H  0.05288203  0.61093760  0.13879196     0.15200
H436        H  0.10912997  0.55182930  0.13852594     0.15200
H437        H  0.05219097  0.60876448  0.35961399     0.15200
H438        H  0.11125006  0.55246518  0.35935613     0.15200
H439        H  0.06347330  0.77436801  0.03702625     0.13500
H440        H  0.06274973  0.77315616  0.46016071     0.13500
H441        H  0.27355543  0.56236470  0.03797220     0.13500
H442        H  0.27474920  0.56307139  0.46110592     0.13500
H443        H  0.14608857  0.64586328  0.03290402     0.26800
H444        H  0.14624136  0.64567666  0.46523550     0.26800
N445        N  0.37831561  0.00161305  0.43974657    -0.36000
N446        N  0.33479534  0.91170531  0.99923198    -0.56600
N447        N  0.37791309  0.00083785  0.05839307    -0.36000
N448        N  0.42434911  0.59074282  0.49890283    -0.56600
C449        C  0.36779275  0.95376690  0.41891431     0.27600
C450        C  0.41470764  0.54966194  0.41868027     0.27600
C451        C  0.36625429  0.95279864  0.07945897     0.27600
C452        C  0.41525213  0.54869555  0.07922663     0.27600
C453        C  0.30711238  0.87930854  0.46784139     0.36200
C454        C  0.30607393  0.87893678  0.03030354     0.36200
C455        C  0.42839769  0.62350158  0.46782945     0.36200
C456        C  0.42905936  0.62313200  0.03029002     0.36200
C457        C  0.39610636  0.97165604  0.38351469    -0.21300
C458        C  0.42558809  0.53208088  0.38335133    -0.21300
C459        C  0.39472716  0.97039917  0.11479178    -0.21300
C460        C  0.42568241  0.53082568  0.11462878    -0.21300
C461        C  0.25917182  0.82616635  0.47885589    -0.22300
C462        C  0.25852979  0.82592373  0.01873552    -0.22300
C463        C  0.43387131  0.67649755  0.47939195    -0.22300
C464        C  0.43426898  0.67625742  0.01927047    -0.22300
C465        C  0.33018354  0.89461949  0.43022383    -0.17700
C466        C  0.43556323  0.60866684  0.42995118    -0.17700
C467        C  0.43680658  0.60783473  0.06791277    -0.17700
C468        C  0.32809359  0.89378414  0.06818278    -0.17700
H469        H  0.39417212  0.94427205  0.35962374     0.15200
H470        H  0.45048196  0.55964595  0.35935634     0.15200
H471        H  0.39205780  0.94284546  0.13878841     0.15200
H472        H  0.45115063  0.55822319  0.13851804     0.15200
H473        H  0.22971747  0.79035210  0.46019264     0.13500
H474        H  0.22852606  0.78989467  0.03705755     0.13500
H475        H  0.43989702  0.71251311  0.46106550     0.13500
H476        H  0.44062809  0.71206135  0.03793157     0.13500
H477        H  0.35724391  0.00137003  0.46523188     0.26800
H478        H  0.35707800  0.00106415  0.03290435     0.26800
N479        N  0.50200576  0.87791625  0.05839305    -0.36000
N480        N  0.09113788  0.92396218  0.49923510    -0.56600
N481        N  0.50119703  0.87747882  0.43975150    -0.36000
N482        N  0.41206083  0.83433236  0.49891576    -0.56600
C483        C  0.05006217  0.91432949  0.07945198     0.27600
C484        C  0.45414465  0.86738435  0.07922452     0.26800
C485        C  0.04905409  0.91483660  0.41891936     0.27600
C486        C  0.45313557  0.86580227  0.41869104     0.27600
C487        C  0.12391986  0.92803078  0.03030412     0.36200
C488        C  0.12353051  0.92867457  0.46784581     0.36200
C489        C  0.37966407  0.80666978  0.03031117     0.36200
C490        C  0.37927302  0.80561524  0.46784913     0.36200
C491        C  0.03247240  0.92521564  0.11477640    -0.21300
C492        C  0.47203218  0.89571209  0.11461771    -0.21300
C493        C  0.03116349  0.92526165  0.38352254    -0.21300
C494        C  0.47072274  0.89427993  0.38336112    -0.21300
C495        C  0.17693411  0.93351797  0.01873771    -0.22300
C496        C  0.17668156  0.93390472  0.47885922    -0.22300
C497        C  0.32650074  0.75874292  0.01930505    -0.22300
C498        C  0.32624589  0.75809052  0.47942497    -0.22300
C499        C  0.10908369  0.93519979  0.06817978    -0.17700
C500        C  0.39498579  0.82976072  0.06792174    -0.17700
C501        C  0.39411266  0.82763325  0.42997057    -0.17700
C502        C  0.10821378  0.93641334  0.43022803    -0.17700
H503        H  0.06004275  0.95013015  0.13876503     0.15200
H504        H  0.44463708  0.89377387  0.13850771     0.15200
H505        H  0.05855784  0.95074699  0.35963601     0.15200
H506        H  0.44315100  0.89160084  0.35936820     0.15200
H507        H  0.21296862  0.93956023  0.03706101     0.13500
H508        H  0.21249411  0.94027172  0.46019387     0.13500
H509        H  0.29067810  0.72930898  0.03797357     0.13500
H510        H  0.29019782  0.72809723  0.46110848     0.13500
H511        H  0.50176960  0.85683977  0.03291322     0.26800
H512        H  0.50144286  0.85664939  0.46523668     0.26800
C513        C  0.46959094  0.69201320  0.16113389     0.02900
C514        C  0.03148244  0.72553902  0.16062007     0.02900
C515        C  0.06248563  0.72404177  0.12805486    -0.17700
C516        C  0.03293099  0.68756057  0.09654868     0.02900
C517        C  0.47055474  0.65504819  0.09662082     0.02900
C518        C  0.43984748  0.65922501  0.12835328    -0.17700
H519        H  0.39221972  0.63267174  0.12871539     0.04900
H520        H  0.11020829  0.74747334  0.12861440     0.04900
C521        C  0.27739430  0.80688071  0.16064939     0.02900
C522        C  0.31085447  0.77846929  0.16116195     0.02900
C523        C  0.34357874  0.78144387  0.12836824    -0.17700
C524        C  0.34778197  0.81632208  0.09662908     0.02900
C525        C  0.31534890  0.84623953  0.09656357     0.02900
C526        C  0.27891116  0.83936954  0.12807815    -0.17700
H527        H  0.25553361  0.86369520  0.12863578     0.04900
H528        H  0.37007903  0.76033142  0.12872710     0.04900
C529        C  0.47179720  0.69565334  0.33750510     0.02900
C530        C  0.03368797  0.72405444  0.33699205     0.02900
C531        C  0.06344770  0.72104563  0.36977320    -0.17700
C532        C  0.03275768  0.68614455  0.40150580     0.02900
C533        C  0.47038189  0.65622299  0.40157242     0.02900
C534        C  0.44080642  0.66311453  0.37006526    -0.17700
H535        H  0.39308401  0.63877904  0.36950484     0.04900
H536        H  0.11107775  0.74216349  0.36941086     0.04900
C537        C  0.27885591  0.81051621  0.33697752     0.02900
C538        C  0.30719535  0.77698876  0.33750469     0.02900
C539        C  0.33964433  0.77845568  0.37009082    -0.17700
C540        C  0.34655406  0.81491203  0.40159841     0.02900
C541        C  0.31671154  0.84741761  0.40151383     0.02900
C542        C  0.28185894  0.84325564  0.36976495    -0.17700
H543        H  0.26079099  0.86979509  0.36939497     0.04900
H544        H  0.36392613  0.75503324  0.36954656     0.04900
C545        C  0.22588403  0.53110576  0.33751088     0.02900
C546        C  0.19237486  0.96922836  0.33699651     0.02900
C547        C  0.15960573  0.93948290  0.36978193    -0.17700
C548        C  0.15542435  0.97017123  0.40151848     0.02900
C549        C  0.18791452  0.53253125  0.40158987     0.02900
C550        C  0.22438581  0.56209005  0.37008028    -0.17700
H551        H  0.24780587  0.60980015  0.36952215     0.04900
H552        H  0.13306758  0.89186571  0.36942148     0.04900
C553        C  0.22440186  0.53331805  0.16116132     0.02900
C554        C  0.19604207  0.97144490  0.16063874     0.02900
C555        C  0.16354637  0.94046344  0.12806372    -0.17700
C556        C  0.15664547  0.97002556  0.09655625     0.02900
C557        C  0.18652883  0.53238371  0.09663410     0.02900
C558        C  0.22140116  0.56306786  0.12837775    -0.17700
H559        H  0.24249747  0.61068343  0.12874571     0.04900
H560        H  0.13923764  0.89275288  0.12861422     0.04900
O561        O  0.07734664  0.80760136  0.20184374    -0.81200
C562        C  0.25121643  0.81797814  0.30195903     0.98200
O563        O  0.21996025  0.77492553  0.28008499    -0.70300
O564        O  0.11141534  0.74409263  0.29464103    -0.73900
Al565      Al  0.15381970  0.76076569  0.24824428     1.49000
C566        C  0.06878565  0.75172828  0.30197517     0.93400
O567        O  0.13466394  0.89149525  0.29464721    -0.80100
O568        O  0.23226950  0.92559756  0.20185410    -0.73700
Al569      Al  0.10892172  0.84908710  0.24824981     1.90100
O570        O  0.22803267  0.94594863  0.28012605    -0.72700
O571        O  0.27288251  0.85552789  0.21652875    -0.72600
O572        O  0.25887642  0.86825293  0.29463926    -0.78300
O573        O  0.19531048  0.77069336  0.20185003    -0.76500
O574        O  0.16831531  0.83462399  0.24796490    -1.12600
O575        O  0.08460525  0.73006552  0.21653656    -0.71800
C576        C  0.06561767  0.75584187  0.19503865     0.98900
C577        C  0.18494935  0.93412619  0.30198410     0.95300
Al578      Al  0.24219619  0.89401176  0.24825225     1.55600
O579        O  0.05695131  0.78295292  0.28010315    -0.76400
C580        C  0.24709625  0.81073089  0.19505335     0.99500
C581        C  0.19221546  0.93730505  0.19505147     0.94400
O582        O  0.14743040  0.91828934  0.21654435    -0.81700
O583        O  0.36859037  0.75848472  0.70350686    -0.81200
C584        C  0.25618445  0.56524787  0.80309747     0.98200
O585        O  0.23039443  0.58423922  0.78161214    -0.70300
O586        O  0.27100003  0.69492139  0.79629487    -0.73900
Al587      Al  0.26107920  0.65343127  0.74989812     1.49000
C588        C  0.31104655  0.74669415  0.80309675     0.93400
O589        O  0.42594002  0.73187227  0.79629165    -0.80100
O590        O  0.39184552  0.63430920  0.70348563    -0.73700
Al591      Al  0.39435326  0.74180252  0.74989302     1.90100
O592        O  0.41867008  0.64707949  0.78158421    -0.72700
O593        O  0.28329622  0.55659442  0.71805144    -0.72600
O594        O  0.30796402  0.57699480  0.79629328    -0.78300
O595        O  0.24440751  0.61102473  0.70350531    -0.76500
O596        O  0.33495970  0.66793728  0.75017710    -1.12600
O597        O  0.27522874  0.71954837  0.71804429    -0.71800
C598        C  0.31830078  0.75081579  0.69617873     0.98900
C599        C  0.43765955  0.69183449  0.80309013     0.95300
Al600      Al  0.34944565  0.60856893  0.74988853     1.55600
O601        O  0.35585491  0.77247488  0.78162091    -0.76400
C602        C  0.25205618  0.56841005  0.69617841     0.99500
C603        C  0.43448005  0.68458462  0.69614836     0.94400
O604        O  0.44630705  0.72765090  0.71801371    -0.81700
N605        N  0.12502077  0.62504808  0.55839803    -0.36000
N606        N  0.07899414  0.66811713  0.99923016    -0.56600
N607        N  0.12541074  0.62461459  0.93974398    -0.36000
N608        N  0.16846791  0.57857784  0.99890985    -0.56600
C609        C  0.08864630  0.63671858  0.57946278     0.27600
C610        C  0.13551882  0.58770930  0.57923230     0.27600
C611        C  0.08807941  0.63513266  0.91890846     0.27600
C612        C  0.13705864  0.58822960  0.91868167     0.27600
C613        C  0.07494691  0.69684064  0.53029363     0.36200
C614        C  0.07429371  0.69578638  0.96783126     0.36200
C615        C  0.19615533  0.57388989  0.53030581     0.36200
C616        C  0.19719452  0.57452854  0.96784543     0.36200
C617        C  0.07776831  0.60826262  0.61479733    -0.21300
C618        C  0.10721785  0.57729667  0.61463461    -0.21300
C619        C  0.07764999  0.60683285  0.88350769    -0.21300
C620        C  0.10859253  0.57735903  0.88334862    -0.21300
C621        C  0.06948810  0.74436510  0.51871257    -0.22300
C622        C  0.06909657  0.74371285  0.97883345    -0.22300
C623        C  0.24409598  0.56869882  0.51930100    -0.22300
C624        C  0.24473910  0.56908207  0.97942211    -0.22300
C625        C  0.06777828  0.67485117  0.56817910    -0.17700
C626        C  0.17308890  0.56613790  0.56792237    -0.17700
C627        C  0.17519209  0.56735597  0.92996332    -0.17700
C628        C  0.06652889  0.67271570  0.93021566    -0.17700
H629        H  0.05288228  0.61093772  0.63879212     0.15200
H630        H  0.10912981  0.55182906  0.63852587     0.15200
H631        H  0.05219063  0.60876429  0.85961416     0.15200
H632        H  0.11124986  0.55246508  0.85935614     0.15200
H633        H  0.06347286  0.77436770  0.53702624     0.13500
H634        H  0.06274977  0.77315615  0.96016074     0.13500
H635        H  0.27355540  0.56236466  0.53797230     0.13500
H636        H  0.27474915  0.56307148  0.96110588     0.13500
H637        H  0.14608850  0.64586320  0.53290399     0.26800
H638        H  0.14624154  0.64567681  0.96523547     0.26800
N639        N  0.37831540  0.00161300  0.93974647    -0.36000
N640        N  0.33479534  0.91170541  0.49923196    -0.56600
N641        N  0.37791310  0.00083789  0.55839294    -0.36000
N642        N  0.42434925  0.59074286  0.99890284    -0.56600
C643        C  0.36779258  0.95376678  0.91891426     0.27600
C644        C  0.41470776  0.54966194  0.91868027     0.27600
C645        C  0.36625434  0.95279868  0.57945883     0.27600
C646        C  0.41525202  0.54869551  0.57922654     0.27600
C647        C  0.30711230  0.87930849  0.96784142     0.36200
C648        C  0.30607383  0.87893687  0.53030348     0.36200
C649        C  0.42839760  0.62350156  0.96782941     0.36200
C650        C  0.42905917  0.62313194  0.53029003     0.36200
C651        C  0.39610635  0.97165589  0.88351468    -0.21300
C652        C  0.42558818  0.53208089  0.88335131    -0.21300
C653        C  0.39472721  0.97039918  0.61479160    -0.21300
C654        C  0.42568244  0.53082571  0.61462859    -0.21300
C655        C  0.25917180  0.82616628  0.97885593    -0.22300
C656        C  0.25852974  0.82592374  0.51873549    -0.22300
C657        C  0.43387130  0.67649764  0.97939187    -0.22300
C658        C  0.43426891  0.67625736  0.51927049    -0.22300
C659        C  0.33018345  0.89461940  0.93022382    -0.17700
C660        C  0.43556324  0.60866681  0.92995117    -0.17700
C661        C  0.43680648  0.60783472  0.56791273    -0.17700
C662        C  0.32809354  0.89378419  0.56818272    -0.17700
H663        H  0.39417218  0.94427189  0.85962377     0.15200
H664        H  0.45048199  0.55964607  0.85935633     0.15200
H665        H  0.39205782  0.94284537  0.63878826     0.15200
H666        H  0.45115092  0.55822335  0.63851777     0.15200
H667        H  0.22971751  0.79035201  0.96019269     0.13500
H668        H  0.22852616  0.78989465  0.53705747     0.13500
H669        H  0.43989712  0.71251311  0.96106548     0.13500
H670        H  0.44062803  0.71206128  0.53793162     0.13500
H671        H  0.35724372  0.00136998  0.96523180     0.26800
H672        H  0.35707790  0.00106423  0.53290434     0.26800
N673        N  0.50200574  0.87791615  0.55839306    -0.36000
N674        N  0.09113784  0.92396200  0.99923510    -0.56600
N675        N  0.50119709  0.87747888  0.93975146    -0.36000
N676        N  0.41206095  0.83433215  0.99891579    -0.56600
C677        C  0.05006217  0.91432938  0.57945201     0.27600
C678        C  0.45414461  0.86738423  0.57922456     0.26800
C679        C  0.04905405  0.91483668  0.91891932     0.27600
C680        C  0.45313563  0.86580225  0.91869103     0.27600
C681        C  0.12391980  0.92803066  0.53030414     0.36200
C682        C  0.12353048  0.92867444  0.96784577     0.36200
C683        C  0.37966394  0.80666988  0.53031113     0.36200
C684        C  0.37927310  0.80561515  0.96784915     0.36200
C685        C  0.03247238  0.92521556  0.61477640    -0.21300
C686        C  0.47203218  0.89571193  0.61461780    -0.21300
C687        C  0.03116343  0.92526164  0.88352245    -0.21300
C688        C  0.47072265  0.89427992  0.88336105    -0.21300
C689        C  0.17693408  0.93351776  0.51873777    -0.22300
C690        C  0.17668164  0.93390481  0.97885919    -0.22300
C691        C  0.32650069  0.75874293  0.51930499    -0.22300
C692        C  0.32624588  0.75809060  0.97942503    -0.22300
C693        C  0.10908365  0.93519963  0.56817984    -0.17700
C694        C  0.39498576  0.82976076  0.56792172    -0.17700
C695        C  0.39411270  0.82763311  0.92997057    -0.17700
C696        C  0.10821377  0.93641336  0.93022803    -0.17700
H697        H  0.06004282  0.95013024  0.63876501     0.15200
H698        H  0.44463722  0.89377374  0.63850783     0.15200
H699        H  0.05855770  0.95074683  0.85963587     0.15200
H700        H  0.44315092  0.89160086  0.85936824     0.15200
H701        H  0.21296843  0.93955993  0.53706100     0.13500
H702        H  0.21249416  0.94027185  0.96019388     0.13500
H703        H  0.29067803  0.72930893  0.53797347     0.13500
H704        H  0.29019772  0.72809744  0.96110852     0.13500
H705        H  0.50176956  0.85683974  0.53291324     0.26800
H706        H  0.50144295  0.85664950  0.96523665     0.26800
C707        C  0.46959101  0.69201328  0.66113388     0.02900
C708        C  0.03148247  0.72553918  0.66062007     0.02900
C709        C  0.06248560  0.72404182  0.62805489    -0.17700
C710        C  0.03293100  0.68756054  0.59654872     0.02900
C711        C  0.47055481  0.65504825  0.59662081     0.02900
C712        C  0.43984757  0.65922520  0.62835320    -0.17700
H713        H  0.39221981  0.63267208  0.62871516     0.04900
H714        H  0.11020837  0.74747345  0.62861446     0.04900
C715        C  0.27739436  0.80688075  0.66064941     0.02900
C716        C  0.31085455  0.77846932  0.66116193     0.02900
C717        C  0.34357885  0.78144391  0.62836820    -0.17700
C718        C  0.34778197  0.81632215  0.59662906     0.02900
C719        C  0.31534885  0.84623957  0.59656352     0.02900
C720        C  0.27891104  0.83936948  0.62807811    -0.17700
H721        H  0.25553335  0.86369496  0.62863569     0.04900
H722        H  0.37007907  0.76033155  0.62872703     0.04900
C723        C  0.47179731  0.69565334  0.83750512     0.02900
C724        C  0.03368805  0.72405443  0.83699206     0.02900
C725        C  0.06344778  0.72104564  0.86977320    -0.17700
C726        C  0.03275779  0.68614458  0.90150583     0.02900
C727        C  0.47038201  0.65622304  0.90157242     0.02900
C728        C  0.44080656  0.66311456  0.87006529    -0.17700
H729        H  0.39308415  0.63877904  0.86950490     0.04900
H730        H  0.11107787  0.74216357  0.86941082     0.04900
C731        C  0.27885610  0.81051637  0.83697741     0.02900
C732        C  0.30719558  0.77698893  0.83750458     0.02900
C733        C  0.33964455  0.77845582  0.87009068    -0.17700
C734        C  0.34655415  0.81491198  0.90159838     0.02900
C735        C  0.31671154  0.84741751  0.90151380     0.02900
C736        C  0.28185900  0.84325570  0.86976490    -0.17700
H737        H  0.26079103  0.86979505  0.86939495     0.04900
H738        H  0.36392635  0.75503337  0.86954632     0.04900
C739        C  0.22588391  0.53110576  0.83751086     0.02900
C740        C  0.19237490  0.96922835  0.83699655     0.02900
C741        C  0.15960573  0.93948297  0.86978196    -0.17700
C742        C  0.15542438  0.97017127  0.90151850     0.02900
C743        C  0.18791449  0.53253125  0.90158987     0.02900
C744        C  0.22438563  0.56209005  0.87008023    -0.17700
H745        H  0.24780559  0.60980015  0.86952204     0.04900
H746        H  0.13306740  0.89186577  0.86942148     0.04900
C747        C  0.22440179  0.53331814  0.66116136     0.02900
C748        C  0.19604223  0.97144500  0.66063877     0.02900
C749        C  0.16354652  0.94046345  0.62806379    -0.17700
C750        C  0.15664546  0.97002548  0.59655630     0.02900
C751        C  0.18652880  0.53238379  0.59663415     0.02900
C752        C  0.22140104  0.56306797  0.62837780    -0.17700
H753        H  0.24249728  0.61068351  0.62874573     0.04900
H754        H  0.13923787  0.89275291  0.62861440     0.04900
O755        O  0.07734682  0.80760141  0.70184381    -0.81200
C756        C  0.25121651  0.81797824  0.80195900     0.98200
O757        O  0.21996032  0.77492557  0.78008498    -0.70300
O758        O  0.11141535  0.74409251  0.79464108    -0.73900
Al759      Al  0.15381971  0.76076556  0.74824432     1.49000
C760        C  0.06878573  0.75172821  0.80197521     0.93400
O761        O  0.13466395  0.89149528  0.79464721    -0.80100
O762        O  0.23226960  0.92559763  0.70185418    -0.73700
Al763      Al  0.10892179  0.84908707  0.74824982     1.90100
O764        O  0.22803267  0.94594870  0.78012607    -0.72700
O765        O  0.27288253  0.85552777  0.71652887    -0.72600
O766        O  0.25887632  0.86825298  0.79463926    -0.78300
O767        O  0.19531057  0.77069317  0.70185010    -0.76500
O768        O  0.16831533  0.83462391  0.74796494    -1.12600
O769        O  0.08460520  0.73006542  0.71653657    -0.71800
C770        C  0.06561769  0.75584189  0.69503869     0.98900
C771        C  0.18494940  0.93412625  0.80198414     0.95300
Al772      Al  0.24219618  0.89401175  0.74825230     1.55600
O773        O  0.05695142  0.78295294  0.78010320    -0.76400
C774        C  0.24709632  0.81073080  0.69505343     0.99500
C775        C  0.19221557  0.93730512  0.69505149     0.94400
O776        O  0.14743037  0.91828919  0.71654425    -0.81700
O777        O  0.86859035  0.25848479  0.20350696    -0.81200
C778        C  0.75618448  0.06524789  0.30309746     0.98200
O779        O  0.73039443  0.08423919  0.28161208    -0.70300
O780        O  0.77099991  0.19492140  0.29629480    -0.73900
Al781      Al  0.76107915  0.15343124  0.24989807     1.49000
C782        C  0.81104646  0.24669411  0.30309680     0.93400
O783        O  0.92593999  0.23187223  0.29629165    -0.80100
O784        O  0.89184557  0.13430921  0.20348570    -0.73700
Al785      Al  0.89435325  0.24180252  0.24989306     1.90100
O786        O  0.91867006  0.14707948  0.28158420    -0.72700
O787        O  0.78329627  0.05659440  0.21805147    -0.72600
O788        O  0.80796402  0.07699478  0.29629326    -0.78300
O789        O  0.74440754  0.11102467  0.20350526    -0.76500
O790        O  0.83495967  0.16793727  0.25017710    -1.12600
O791        O  0.77522863  0.21954829  0.21804425    -0.71800
C792        C  0.81830075  0.25081580  0.19617875     0.98900
C793        C  0.93765954  0.19183448  0.30309010     0.95300
Al794      Al  0.84944565  0.10856893  0.24988854     1.55600
O795        O  0.85585491  0.27247486  0.28162102    -0.76400
C796        C  0.75205623  0.06841001  0.19617839     0.99500
C797        C  0.93448013  0.18458459  0.19614844     0.94400
O798        O  0.94630714  0.22765092  0.21801373    -0.81700
N799        N  0.62502074  0.12504806  0.05839798    -0.36000
N800        N  0.57899411  0.16811706  0.49923013    -0.56600
N801        N  0.62541068  0.12461453  0.43974397    -0.36000
N802        N  0.66846797  0.07857785  0.49890988    -0.56600
C803        C  0.58864621  0.13671851  0.07946273     0.27600
C804        C  0.63551881  0.08770928  0.07923228     0.27600
C805        C  0.58807935  0.13513259  0.41890843     0.27600
C806        C  0.63705860  0.08822953  0.41868167     0.27600
C807        C  0.57494700  0.19684070  0.03029365     0.36200
C808        C  0.57429388  0.19578644  0.46783122     0.36200
C809        C  0.69615536  0.07389004  0.03030577     0.36200
C810        C  0.69719456  0.07452853  0.46784546     0.36200
C811        C  0.57776821  0.10826254  0.11479728    -0.21300
C812        C  0.60721781  0.07729659  0.11463465    -0.21300
C813        C  0.57764996  0.10683282  0.38350768    -0.21300
C814        C  0.60859252  0.07735902  0.38334862    -0.21300
C815        C  0.56948812  0.24436504  0.01871257    -0.22300
C816        C  0.56909677  0.24371296  0.47883338    -0.22300
C817        C  0.74409596  0.06869889  0.01930097    -0.22300
C818        C  0.74473913  0.06908204  0.47942212    -0.22300
C819        C  0.56777821  0.17485114  0.06817908    -0.17700
C820        C  0.67308892  0.06613793  0.06792236    -0.17700
C821        C  0.67519206  0.06735593  0.42996335    -0.17700
C822        C  0.56652889  0.17271566  0.43021565    -0.17700
H823        H  0.55288218  0.11093772  0.13879203     0.15200
H824        H  0.60912975  0.05182908  0.13852586     0.15200
H825        H  0.55219064  0.10876431  0.35961413     0.15200
H826        H  0.61124992  0.05246512  0.35935613     0.15200
H827        H  0.56347283  0.27436767  0.03702627     0.13500
H828        H  0.56274999  0.27315619  0.46016066     0.13500
H829        H  0.77355528  0.06236464  0.03797229     0.13500
H830        H  0.77474913  0.06307147  0.46110584     0.13500
H831        H  0.64608848  0.14586318  0.03290398     0.26800
H832        H  0.64624152  0.14567680  0.46523546     0.26800
N833        N  0.87831546  0.50161304  0.43974655    -0.36000
N834        N  0.83479527  0.41170540  0.99923198    -0.56600
N835        N  0.87791314  0.50083790  0.05839307    -0.36000
N836        N  0.92434920  0.09074286  0.49890285    -0.56600
C837        C  0.86779261  0.45376686  0.41891431     0.27600
C838        C  0.91470775  0.04966193  0.41868030     0.27600
C839        C  0.86625431  0.45279869  0.07945894     0.27600
C840        C  0.91525201  0.04869551  0.07922663     0.27600
C841        C  0.80711238  0.37930848  0.46784139     0.36200
C842        C  0.80607380  0.37893689  0.03030356     0.36200
C843        C  0.92839759  0.12350153  0.46782944     0.36200
C844        C  0.92905912  0.12313190  0.03029003     0.36200
C845        C  0.89610630  0.47165598  0.38351475    -0.21300
C846        C  0.92558818  0.03208091  0.38335134    -0.21300
C847        C  0.89472721  0.47039912  0.11479175    -0.21300
C848        C  0.92568240  0.03082572  0.11462872    -0.21300
C849        C  0.75917183  0.32616629  0.47885586    -0.22300
C850        C  0.75852978  0.32592376  0.01873553    -0.22300
C851        C  0.93387125  0.17649756  0.47939188    -0.22300
C852        C  0.93426886  0.17625736  0.01927051    -0.22300
C853        C  0.83018347  0.39461945  0.43022384    -0.17700
C854        C  0.93556328  0.10866680  0.42995120    -0.17700
C855        C  0.93680640  0.10783468  0.06791277    -0.17700
C856        C  0.82809350  0.39378422  0.06818279    -0.17700
H857        H  0.89417211  0.44427189  0.35962383     0.15200
H858        H  0.95048201  0.05964604  0.35935636     0.15200
H859        H  0.89205779  0.44284533  0.13878835     0.15200
H860        H  0.95115080  0.05822341  0.13851793     0.15200
H861        H  0.72971753  0.29035209  0.46019259     0.13500
H862        H  0.72852612  0.28989469  0.03705757     0.13500
H863        H  0.93989710  0.21251306  0.46106544     0.13500
H864        H  0.94062796  0.21206124  0.03793161     0.13500
H865        H  0.85724377  0.50137004  0.46523186     0.26800
H866        H  0.85707799  0.50106427  0.03290440     0.26800
N867        N  0.00200573  0.37791618  0.05839304    -0.36000
N868        N  0.59113791  0.42396198  0.49923509    -0.56600
N869        N  0.00119705  0.37747893  0.43975149    -0.36000
N870        N  0.91206092  0.33433217  0.49891574    -0.56600
C871        C  0.55006214  0.41432951  0.07945194     0.27600
C872        C  0.95414457  0.36738424  0.07922454     0.26800
C873        C  0.54905407  0.41483676  0.41891939     0.27600
C874        C  0.95313559  0.36580238  0.41869105     0.27600
C875        C  0.62391985  0.42803072  0.03030412     0.36200
C876        C  0.62353050  0.42867440  0.46784578     0.36200
C877        C  0.87966393  0.30666983  0.03031115     0.36200
C878        C  0.87927303  0.30561511  0.46784911     0.36200
C879        C  0.53247235  0.42521568  0.11477634    -0.21300
C880        C  0.97203213  0.39571197  0.11461777    -0.21300
C881        C  0.53116346  0.42526187  0.38352256    -0.21300
C882        C  0.97072269  0.39428009  0.38336110    -0.21300
C883        C  0.67693407  0.43351793  0.01873772    -0.22300
C884        C  0.67668164  0.43390476  0.47885921    -0.22300
C885        C  0.82650069  0.25874297  0.01930500    -0.22300
C886        C  0.82624574  0.25809052  0.47942498    -0.22300
C887        C  0.60908365  0.43519973  0.06817979    -0.17700
C888        C  0.89498571  0.32976075  0.06792174    -0.17700
C889        C  0.89411267  0.32763316  0.42997057    -0.17700
C890        C  0.60821378  0.43641335  0.43022804    -0.17700
H891        H  0.56004277  0.45013028  0.13876496     0.15200
H892        H  0.94463715  0.39377373  0.13850780     0.15200
H893        H  0.55855775  0.45074715  0.35963603     0.15200
H894        H  0.94315099  0.39160087  0.35936820     0.15200
H895        H  0.71296860  0.43956026  0.03706106     0.13500
H896        H  0.71249423  0.44027183  0.46019385     0.13500
H897        H  0.79067793  0.22930895  0.03797350     0.13500
H898        H  0.79019764  0.22809740  0.46110851     0.13500
H899        H  0.00176958  0.35683965  0.03291327     0.26800
H900        H  0.00144289  0.35664937  0.46523661     0.26800
C901        C  0.96959103  0.19201320  0.16113391     0.02900
C902        C  0.53148250  0.22553914  0.16062005     0.02900
C903        C  0.56248564  0.22404186  0.12805483    -0.17700
C904        C  0.53293092  0.18756052  0.09654869     0.02900
C905        C  0.97055470  0.15504821  0.09662082     0.02900
C906        C  0.93984751  0.15922514  0.12835327    -0.17700
H907        H  0.89221973  0.13267204  0.12871532     0.04900
H908        H  0.61020831  0.24747343  0.12861437     0.04900
C909        C  0.77739432  0.30688069  0.16064940     0.02900
C910        C  0.81085453  0.27846926  0.16116194     0.02900
C911        C  0.84357880  0.28144382  0.12836821    -0.17700
C912        C  0.84778196  0.31632214  0.09662908     0.02900
C913        C  0.81534886  0.34623962  0.09656359     0.02900
C914        C  0.77891106  0.33936959  0.12807818    -0.17700
H915        H  0.75553346  0.36369505  0.12863581     0.04900
H916        H  0.87007900  0.26033143  0.12872703     0.04900
C917        C  0.97179731  0.19565331  0.33750510     0.02900
C918        C  0.53368809  0.22405441  0.33699204     0.02900
C919        C  0.56344782  0.22104569  0.36977324    -0.17700
C920        C  0.53275779  0.18614458  0.40150582     0.02900
C921        C  0.97038200  0.15622300  0.40157242     0.02900
C922        C  0.94080654  0.16311460  0.37006529    -0.17700
H923        H  0.89308414  0.13877917  0.36950490     0.04900
H924        H  0.61107789  0.24216363  0.36941092     0.04900
C925        C  0.77885593  0.31051624  0.33697753     0.02900
C926        C  0.80719544  0.27698881  0.33750467     0.02900
C927        C  0.83964446  0.27845576  0.37009078    -0.17700
C928        C  0.84655410  0.31491200  0.40159841     0.02900
C929        C  0.81671156  0.34741760  0.40151383     0.02900
C930        C  0.78185891  0.34325567  0.36976498    -0.17700
H931        H  0.76079095  0.36979502  0.36939503     0.04900
H932        H  0.86392630  0.25503337  0.36954647     0.04900
C933        C  0.72588394  0.03110577  0.33751085     0.02900
C934        C  0.69237486  0.46922834  0.33699654     0.02900
C935        C  0.65960567  0.43948297  0.36978193    -0.17700
C936        C  0.65542431  0.47017128  0.40151849     0.02900
C937        C  0.68791451  0.03253118  0.40158989     0.02900
C938        C  0.72438580  0.06209003  0.37008030    -0.17700
H939        H  0.74780588  0.10980012  0.36952222     0.04900
H940        H  0.63306739  0.39186577  0.36942147     0.04900
C941        C  0.72440190  0.03331808  0.16116132     0.02900
C942        C  0.69604212  0.47144492  0.16063874     0.02900
C943        C  0.66354645  0.44046343  0.12806373    -0.17700
C944        C  0.65664546  0.47002552  0.09655627     0.02900
C945        C  0.68652886  0.03238379  0.09663410     0.02900
C946        C  0.72140108  0.06306793  0.12837781    -0.17700
H947        H  0.74249722  0.11068346  0.12874582     0.04900
H948        H  0.63923774  0.39275289  0.12861429     0.04900
O949        O  0.57734682  0.30760140  0.20184376    -0.81200
C950        C  0.75121646  0.31797819  0.30195906     0.98200
O951        O  0.71996034  0.27492559  0.28008498    -0.70300
O952        O  0.61141539  0.24409249  0.29464101    -0.73900
Al953      Al  0.65381974  0.26076557  0.24824427     1.49000
C954        C  0.56878574  0.25172819  0.30197518     0.93400
O955        O  0.63466391  0.39149520  0.29464722    -0.80100
O956        O  0.73226954  0.42559755  0.20185410    -0.73700
Al957      Al  0.60892178  0.34908704  0.24824980     1.90100
O958        O  0.72803261  0.44594867  0.28012601    -0.72700
O959        O  0.77288251  0.35552773  0.21652879    -0.72600
O960        O  0.75887648  0.36825301  0.29463927    -0.78300
O961        O  0.69531052  0.27069316  0.20185002    -0.76500
O962        O  0.66831535  0.33462391  0.24796489    -1.12600
O963        O  0.58460525  0.23006545  0.21653653    -0.71800
C964        C  0.56561775  0.25584188  0.19503865     0.98900
C965        C  0.68494936  0.43412622  0.30198410     0.95300
Al966      Al  0.74219622  0.39401174  0.24825225     1.55600
O967        O  0.55695140  0.28295285  0.28010314    -0.76400
C968        C  0.74709628  0.31073075  0.19505337     0.99500
C969        C  0.69221548  0.43730504  0.19505146     0.94400
O970        O  0.64743039  0.41828924  0.21654429    -0.81700
O971        O  0.86859036  0.25848457  0.70350681    -0.81200
C972        C  0.75618455  0.06524797  0.80309748     0.98200
O973        O  0.73039451  0.08423936  0.78161217    -0.70300
O974        O  0.77099987  0.19492152  0.79629484    -0.73900
Al975      Al  0.76107914  0.15343138  0.74989813     1.49000
C976        C  0.81104652  0.24669421  0.80309674     0.93400
O977        O  0.92593993  0.23187242  0.79629169    -0.80100
O978        O  0.89184552  0.13430926  0.70348563    -0.73700
Al979      Al  0.89435324  0.24180256  0.74989302     1.90100
O980        O  0.91866997  0.14707966  0.78158419    -0.72700
O981        O  0.78329609  0.05659446  0.71805151    -0.72600
O982        O  0.80796414  0.07699497  0.79629329    -0.78300
O983        O  0.74440749  0.11102482  0.70350529    -0.76500
O984        O  0.83495965  0.16793737  0.75017711    -1.12600
O985        O  0.77522877  0.21954849  0.71804431    -0.71800
C986        C  0.81830083  0.25081578  0.69617871     0.98900
C987        C  0.93765942  0.19183461  0.80309014     0.95300
Al988      Al  0.84944561  0.10856904  0.74988853     1.55600
O989        O  0.85585488  0.27247487  0.78162091    -0.76400
C990        C  0.75205616  0.06841014  0.69617840     0.99500
C991        C  0.93448003  0.18458464  0.69614837     0.94400
O992        O  0.94630711  0.22765093  0.71801376    -0.81700
N993        N  0.62502063  0.12504798  0.55839803    -0.36000
N994        N  0.57899410  0.16811709  0.99923015    -0.56600
N995        N  0.62541057  0.12461442  0.93974402    -0.36000
N996        N  0.66846782  0.07857770  0.99890981    -0.56600
C997        C  0.58864632  0.13671860  0.57946277     0.27600
C998        C  0.63551870  0.08770914  0.57923229     0.27600
C999        C  0.58807931  0.13513255  0.91890848     0.27600
C1000       C  0.63705860  0.08822949  0.91868169     0.27600
C1001       C  0.57494707  0.19684073  0.53029363     0.36200
C1002       C  0.57429378  0.19578643  0.96783124     0.36200
C1003       C  0.69615542  0.07389000  0.53030583     0.36200
C1004       C  0.69719445  0.07452836  0.96784542     0.36200
C1005       C  0.57776835  0.10826272  0.61479730    -0.21300
C1006       C  0.60721785  0.07729674  0.61463465    -0.21300
C1007       C  0.57765001  0.10683290  0.88350762    -0.21300
C1008       C  0.60859260  0.07735907  0.88334856    -0.21300
C1009       C  0.56948834  0.24436522  0.51871254    -0.22300
C1010       C  0.56909655  0.24371284  0.97883344    -0.22300
C1011       C  0.74409610  0.06869895  0.51930098    -0.22300
C1012       C  0.74473901  0.06908185  0.97942214    -0.22300
C1013       C  0.56777840  0.17485133  0.56817911    -0.17700
C1014       C  0.67308882  0.06613777  0.56792237    -0.17700
C1015       C  0.67519215  0.06735597  0.92996330    -0.17700
C1016       C  0.56652883  0.17271564  0.93021566    -0.17700
H1017       H  0.55288231  0.11093796  0.63879211     0.15200
H1018       H  0.60912991  0.05182933  0.63852599     0.15200
H1019       H  0.55219079  0.10876443  0.85961410     0.15200
H1020       H  0.61125004  0.05246528  0.85935607     0.15200
H1021       H  0.56347318  0.27436789  0.53702618     0.13500
H1022       H  0.56274972  0.27315613  0.96016075     0.13500
H1023       H  0.77355546  0.06236465  0.53797223     0.13500
H1024       H  0.77474913  0.06307129  0.96110595     0.13500
H1025       H  0.64608845  0.14586317  0.53290401     0.26800
H1026       H  0.64624142  0.14567672  0.96523549     0.26800
N1027       N  0.87831562  0.50161301  0.93974650    -0.36000
N1028       N  0.83479535  0.41170532  0.49923197    -0.56600
N1029       N  0.87791295  0.50083786  0.55839297    -0.36000
N1030       N  0.92434901  0.09074277  0.99890283    -0.56600
C1031       C  0.86779266  0.45376679  0.91891424     0.27600
C1032       C  0.91470765  0.04966191  0.91868023     0.27600
C1033       C  0.86625418  0.45279864  0.57945888     0.27600
C1034       C  0.91525208  0.04869552  0.57922656     0.27600
C1035       C  0.80711236  0.37930848  0.96784143     0.36200
C1036       C  0.80607387  0.37893677  0.53030347     0.36200
C1037       C  0.92839759  0.12350155  0.96782942     0.36200
C1038       C  0.92905926  0.12313199  0.53029002     0.36200
C1039       C  0.89610631  0.47165592  0.88351457    -0.21300
C1040       C  0.92558817  0.03208081  0.88335135    -0.21300
C1041       C  0.89472708  0.47039921  0.61479163    -0.21300
C1042       C  0.92568238  0.03082568  0.61462867    -0.21300
C1043       C  0.75917186  0.32616623  0.97885593    -0.22300
C1044       C  0.75852975  0.32592373  0.51873543    -0.22300
C1045       C  0.93387123  0.17649757  0.97939193    -0.22300
C1046       C  0.93426888  0.17625735  0.51927044    -0.22300
C1047       C  0.83018347  0.39461942  0.93022380    -0.17700
C1048       C  0.93556323  0.10866683  0.92995117    -0.17700
C1049       C  0.93680654  0.10783474  0.56791273    -0.17700
C1050       C  0.82809356  0.39378410  0.56818272    -0.17700
H1051       H  0.89417211  0.44427204  0.85962366     0.15200
H1052       H  0.95048203  0.05964595  0.85935633     0.15200
H1053       H  0.89205773  0.44284546  0.63878832     0.15200
H1054       H  0.95115063  0.05822320  0.63851791     0.15200
H1055       H  0.72971760  0.29035195  0.96019271     0.13500
H1056       H  0.72852594  0.28989456  0.53705740     0.13500
H1057       H  0.93989694  0.21251310  0.96106553     0.13500
H1058       H  0.94062801  0.21206133  0.53793157     0.13500
H1059       H  0.85724394  0.50136999  0.96523186     0.26800
H1060       H  0.85707777  0.50106419  0.53290435     0.26800
N1061       N  0.00200585  0.37791640  0.55839304    -0.36000
N1062       N  0.59113790  0.42396210  0.99923509    -0.56600
N1063       N  0.00119710  0.37747884  0.93975148    -0.36000
N1064       N  0.91206085  0.33433221  0.99891580    -0.56600
C1065       C  0.55006224  0.41432953  0.57945198     0.27600
C1066       C  0.95414468  0.36738439  0.57922456     0.26800
C1067       C  0.54905411  0.41483657  0.91891932     0.27600
C1068       C  0.95313559  0.36580224  0.91869102     0.27600
C1069       C  0.62391992  0.42803076  0.53030413     0.36200
C1070       C  0.62353058  0.42867453  0.96784578     0.36200
C1071       C  0.87966404  0.30666979  0.53031114     0.36200
C1072       C  0.87927303  0.30561523  0.96784915     0.36200
C1073       C  0.53247248  0.42521565  0.61477638    -0.21300
C1074       C  0.97203229  0.39571208  0.61461781    -0.21300
C1075       C  0.53116351  0.42526163  0.88352250    -0.21300
C1076       C  0.97072270  0.39427985  0.88336102    -0.21300
C1077       C  0.67693420  0.43351795  0.51873773    -0.22300
C1078       C  0.67668165  0.43390479  0.97885922    -0.22300
C1079       C  0.82650064  0.25874288  0.51930505    -0.22300
C1080       C  0.82624592  0.25809059  0.97942502    -0.22300
C1081       C  0.60908372  0.43519979  0.56817981    -0.17700
C1082       C  0.89498586  0.32976075  0.56792173    -0.17700
C1083       C  0.89411266  0.32763324  0.92997057    -0.17700
C1084       C  0.60821382  0.43641337  0.93022803    -0.17700
H1085       H  0.56004299  0.45013026  0.63876503     0.15200
H1086       H  0.94463738  0.39377387  0.63850787     0.15200
H1087       H  0.55855786  0.45074691  0.85963593     0.15200
H1088       H  0.94315104  0.39160083  0.85936817     0.15200
H1089       H  0.71296869  0.43956022  0.53706098     0.13500
H1090       H  0.71249423  0.44027171  0.96019393     0.13500
H1091       H  0.79067809  0.22930898  0.53797354     0.13500
H1092       H  0.79019778  0.22809729  0.96110849     0.13500
H1093       H  0.00176967  0.35684001  0.53291320     0.26800
H1094       H  0.00144295  0.35664955  0.96523670     0.26800
C1095       C  0.96959095  0.19201330  0.66113385     0.02900
C1096       C  0.53148240  0.22553910  0.66062010     0.02900
C1097       C  0.56248563  0.22404193  0.62805489    -0.17700
C1098       C  0.53293104  0.18756070  0.59654869     0.02900
C1099       C  0.97055480  0.15504826  0.59662079     0.02900
C1100       C  0.93984754  0.15922514  0.62835321    -0.17700
H1101       H  0.89221973  0.13267184  0.62871522     0.04900
H1102       H  0.61020832  0.24747359  0.62861450     0.04900
C1103       C  0.77739453  0.30688086  0.66064942     0.02900
C1104       C  0.81085463  0.27846936  0.66116194     0.02900
C1105       C  0.84357879  0.28144387  0.62836820    -0.17700
C1106       C  0.84778199  0.31632206  0.59662905     0.02900
C1107       C  0.81534889  0.34623949  0.59656350     0.02900
C1108       C  0.77891119  0.33936956  0.62807812    -0.17700
H1109       H  0.75553363  0.36369515  0.62863569     0.04900
H1110       H  0.87007904  0.26033138  0.62872703     0.04900
C1111       C  0.97179718  0.19565332  0.83750510     0.02900
C1112       C  0.53368797  0.22405446  0.83699206     0.02900
C1113       C  0.56344770  0.22104555  0.86977319    -0.17700
C1114       C  0.53275769  0.18614452  0.90150581     0.02900
C1115       C  0.97038193  0.15622303  0.90157243     0.02900
C1116       C  0.94080635  0.16311435  0.87006524    -0.17700
H1117       H  0.89308405  0.13877875  0.86950483     0.04900
H1118       H  0.61107775  0.24216344  0.86941082     0.04900
C1119       C  0.77885602  0.31051629  0.83697742     0.02900
C1120       C  0.80719559  0.27698900  0.83750457     0.02900
C1121       C  0.83964444  0.27845580  0.87009071    -0.17700
C1122       C  0.84655408  0.31491202  0.90159836     0.02900
C1123       C  0.81671147  0.34741752  0.90151379     0.02900
C1124       C  0.78185890  0.34325559  0.86976489    -0.17700
H1125       H  0.76079088  0.36979497  0.86939491     0.04900
H1126       H  0.86392615  0.25503322  0.86954643     0.04900
C1127       C  0.72588402  0.03110580  0.83751086     0.02900
C1128       C  0.69237497  0.46922833  0.83699658     0.02900
C1129       C  0.65960578  0.43948295  0.86978198    -0.17700
C1130       C  0.65542437  0.47017129  0.90151849     0.02900
C1131       C  0.68791459  0.03253125  0.90158986     0.02900
C1132       C  0.72438576  0.06209005  0.87008024    -0.17700
H1133       H  0.74780574  0.10980016  0.86952204     0.04900
H1134       H  0.63306754  0.39186575  0.86942155     0.04900
C1135       C  0.72440191  0.03331820  0.66116132     0.02900
C1136       C  0.69604208  0.47144494  0.66063877     0.02900
C1137       C  0.66354629  0.44046336  0.62806379    -0.17700
C1138       C  0.65664542  0.47002556  0.59655629     0.02900
C1139       C  0.68652884  0.03238371  0.59663413     0.02900
C1140       C  0.72140113  0.06306796  0.62837773    -0.17700
H1141       H  0.74249730  0.11068351  0.62874563     0.04900
H1142       H  0.63923769  0.39275293  0.62861431     0.04900
O1143       O  0.57734676  0.30760137  0.70184381    -0.81200
C1144       C  0.75121644  0.31797813  0.80195900     0.98200
O1145       O  0.71996018  0.27492544  0.78008503    -0.70300
O1146       O  0.61141536  0.24409262  0.79464108    -0.73900
Al1147     Al  0.65381977  0.26076564  0.74824433     1.49000
C1148       C  0.56878574  0.25172836  0.80197522     0.93400
O1149       O  0.63466403  0.39149528  0.79464723    -0.80100
O1150       O  0.73226955  0.42559761  0.70185414    -0.73700
Al1151     Al  0.60892184  0.34908713  0.74824983     1.90100
O1152       O  0.72803275  0.44594865  0.78012610    -0.72700
O1153       O  0.77288271  0.35552792  0.71652886    -0.72600
O1154       O  0.75887640  0.36825291  0.79463922    -0.78300
O1155       O  0.69531075  0.27069333  0.70185013    -0.76500
O1156       O  0.66831540  0.33462397  0.74796493    -1.12600
O1157       O  0.58460533  0.23006548  0.71653654    -0.71800
C1158       C  0.56561764  0.25584184  0.69503872     0.98900
C1159       C  0.68494945  0.43412617  0.80198415     0.95300
Al1160     Al  0.74219627  0.39401176  0.74825229     1.55600
O1161       O  0.55695147  0.28295309  0.78010321    -0.76400
C1162       C  0.74709649  0.31073096  0.69505343     0.99500
C1163       C  0.69221554  0.43730508  0.69505149     0.94400
O1164       O  0.64743041  0.41828929  0.71654432    -0.81700
O1165       O  0.86859022  0.75848470  0.20350694    -0.81200
C1166       C  0.75618444  0.56524781  0.30309745     0.98200
O1167       O  0.73039438  0.58423914  0.28161212    -0.70300
O1168       O  0.77099981  0.69492147  0.29629478    -0.73900
Al1169     Al  0.76107905  0.65343127  0.24989809     1.49000
C1170       C  0.81104639  0.74669413  0.30309681     0.93400
O1171       O  0.92594002  0.73187245  0.29629166    -0.80100
O1172       O  0.89184561  0.63430922  0.20348571    -0.73700
Al1173     Al  0.89435320  0.74180261  0.24989305     1.90100
O1174       O  0.91867002  0.64707967  0.28158418    -0.72700
O1175       O  0.78329619  0.55659441  0.21805148    -0.72600
O1176       O  0.80796402  0.57699477  0.29629322    -0.78300
O1177       O  0.74440741  0.61102464  0.20350528    -0.76500
O1178       O  0.83495961  0.66793734  0.25017711    -1.12600
O1179       O  0.77522853  0.71954840  0.21804428    -0.71800
C1180       C  0.81830065  0.75081581  0.19617874     0.98900
C1181       C  0.93765948  0.69183463  0.30309011     0.95300
Al1182     Al  0.84944562  0.60856901  0.24988853     1.55600
O1183       O  0.85585486  0.77247494  0.28162102    -0.76400
C1184       C  0.75205613  0.56841000  0.19617841     0.99500
C1185       C  0.93448013  0.68458465  0.19614844     0.94400
O1186       O  0.94630707  0.72765097  0.21801371    -0.81700
N1187       N  0.62502076  0.62504806  0.05839799    -0.36000
N1188       N  0.57899412  0.66811711  0.49923010    -0.56600
N1189       N  0.62541050  0.62461437  0.43974401    -0.36000
N1190       N  0.66846783  0.57857769  0.49890986    -0.56600
C1191       C  0.58864630  0.63671853  0.07946272     0.27600
C1192       C  0.63551880  0.58770921  0.07923227     0.27600
C1193       C  0.58807929  0.63513255  0.41890842     0.27600
C1194       C  0.63705851  0.58822944  0.41868172     0.27600
C1195       C  0.57494718  0.69684079  0.03029366     0.36200
C1196       C  0.57429386  0.69578651  0.46783120     0.36200
C1197       C  0.69615536  0.57389002  0.03030577     0.36200
C1198       C  0.69719445  0.57452841  0.46784546     0.36200
C1199       C  0.57776819  0.60826250  0.11479724    -0.21300
C1200       C  0.60721790  0.57729667  0.11463466    -0.21300
C1201       C  0.57765006  0.60683290  0.38350759    -0.21300
C1202       C  0.60859255  0.57735902  0.38334863    -0.21300
C1203       C  0.56948830  0.74436519  0.01871256    -0.22300
C1204       C  0.56909660  0.74371295  0.47883339    -0.22300
C1205       C  0.74409603  0.56869902  0.01930092    -0.22300
C1206       C  0.74473902  0.56908186  0.47942213    -0.22300
C1207       C  0.56777836  0.67485127  0.06817910    -0.17700
C1208       C  0.67308885  0.56613779  0.06792235    -0.17700
C1209       C  0.67519210  0.56735597  0.42996333    -0.17700
C1210       C  0.56652885  0.67271566  0.43021563    -0.17700
H1211       H  0.55288203  0.61093760  0.13879196     0.15200
H1212       H  0.60912998  0.55182930  0.13852594     0.15200
H1213       H  0.55219098  0.60876449  0.35961398     0.15200
H1214       H  0.61125007  0.55246518  0.35935613     0.15200
H1215       H  0.56347322  0.77436792  0.03702623     0.13500
H1216       H  0.56274974  0.77315616  0.46016071     0.13500
H1217       H  0.77355544  0.56236470  0.03797220     0.13500
H1218       H  0.77474909  0.56307137  0.46110587     0.13500
H1219       H  0.64608859  0.64586328  0.03290403     0.26800
H1220       H  0.64624137  0.64567667  0.46523550     0.26800
N1221       N  0.87831560  0.00161302  0.43974657    -0.36000
N1222       N  0.83479536  0.91170531  0.99923197    -0.56600
N1223       N  0.87791310  0.00083785  0.05839307    -0.36000
N1224       N  0.92434911  0.59074282  0.49890283    -0.56600
C1225       C  0.86779274  0.95376683  0.41891430     0.27600
C1226       C  0.91470766  0.54966195  0.41868026     0.27600
C1227       C  0.86625430  0.95279864  0.07945897     0.27600
C1228       C  0.91525214  0.54869554  0.07922663     0.27600
C1229       C  0.80711238  0.87930852  0.46784139     0.36200
C1230       C  0.80607394  0.87893678  0.03030354     0.36200
C1231       C  0.92839770  0.62350158  0.46782945     0.36200
C1232       C  0.92905935  0.62313195  0.03029002     0.36200
C1233       C  0.89610636  0.97165600  0.38351468    -0.21300
C1234       C  0.92558813  0.53208092  0.38335129    -0.21300
C1235       C  0.89472717  0.97039917  0.11479178    -0.21300
C1236       C  0.92568242  0.53082568  0.11462878    -0.21300
C1237       C  0.75917180  0.82616634  0.47885588    -0.22300
C1238       C  0.75852980  0.82592373  0.01873552    -0.22300
C1239       C  0.93387132  0.67649755  0.47939195    -0.22300
C1240       C  0.93426893  0.67625735  0.01927047    -0.22300
C1241       C  0.83018354  0.89461946  0.43022383    -0.17700
C1242       C  0.93556323  0.60866684  0.42995118    -0.17700
C1243       C  0.93680658  0.60783472  0.06791276    -0.17700
C1244       C  0.82809361  0.89378414  0.06818278    -0.17700
H1245       H  0.89417218  0.94427209  0.35962371     0.15200
H1246       H  0.95048193  0.55964596  0.35935634     0.15200
H1247       H  0.89205782  0.94284546  0.13878841     0.15200
H1248       H  0.95115064  0.55822320  0.13851804     0.15200
H1249       H  0.72971747  0.79035210  0.46019262     0.13500
H1250       H  0.72852608  0.78989467  0.03705755     0.13500
H1251       H  0.93989703  0.71251310  0.46106550     0.13500
H1252       H  0.94062815  0.71206132  0.03793157     0.13500
H1253       H  0.85724390  0.00137001  0.46523188     0.26800
H1254       H  0.85707802  0.00106415  0.03290435     0.26800
N1255       N  0.00200576  0.87791626  0.05839305    -0.36000
N1256       N  0.59113788  0.92396218  0.49923510    -0.56600
N1257       N  0.00119708  0.87747881  0.43975150    -0.36000
N1258       N  0.91206081  0.83433232  0.49891575    -0.56600
C1259       C  0.55006218  0.91432949  0.07945198     0.27600
C1260       C  0.95414465  0.86738435  0.07922452     0.26800
C1261       C  0.54905408  0.91483665  0.41891938     0.27600
C1262       C  0.95313559  0.86580226  0.41869104     0.27600
C1263       C  0.62391987  0.92803079  0.03030412     0.36200
C1264       C  0.62353051  0.92867457  0.46784580     0.36200
C1265       C  0.87966408  0.80666977  0.03031117     0.36200
C1266       C  0.87927297  0.80561525  0.46784913     0.36200
C1267       C  0.53247240  0.92521564  0.11477640    -0.21300
C1268       C  0.97203218  0.89571208  0.11461771    -0.21300
C1269       C  0.53116345  0.92526166  0.38352255    -0.21300
C1270       C  0.97072277  0.89427994  0.38336112    -0.21300
C1271       C  0.67693412  0.93351797  0.01873771    -0.22300
C1272       C  0.67668156  0.93390472  0.47885922    -0.22300
C1273       C  0.82650075  0.75874292  0.01930505    -0.22300
C1274       C  0.82624582  0.75809063  0.47942500    -0.22300
C1275       C  0.60908370  0.93519979  0.06817978    -0.17700
C1276       C  0.89498580  0.82976072  0.06792175    -0.17700
C1277       C  0.89411266  0.82763324  0.42997057    -0.17700
C1278       C  0.60821375  0.93641334  0.43022803    -0.17700
H1279       H  0.56004275  0.95013014  0.13876503     0.15200
H1280       H  0.94463708  0.89377386  0.13850772     0.15200
H1281       H  0.55855778  0.95074694  0.35963599     0.15200
H1282       H  0.94315103  0.89160087  0.35936822     0.15200
H1283       H  0.71296864  0.93956023  0.03706101     0.13500
H1284       H  0.71249411  0.94027172  0.46019387     0.13500
H1285       H  0.79067811  0.72930897  0.03797357     0.13500
H1286       H  0.79019764  0.72809734  0.46110851     0.13500
H1287       H  0.00176960  0.85683977  0.03291322     0.26800
H1288       H  0.00144293  0.85664943  0.46523669     0.26800
C1289       C  0.96959100  0.69201320  0.16113389     0.02900
C1290       C  0.53148239  0.72553906  0.16062007     0.02900
C1291       C  0.56248557  0.72404177  0.12805487    -0.17700
C1292       C  0.53293097  0.68756056  0.09654869     0.02900
C1293       C  0.97055476  0.65504820  0.09662081     0.02900
C1294       C  0.93984751  0.65922503  0.12835328    -0.17700
H1295       H  0.89221976  0.63267178  0.12871541     0.04900
H1296       H  0.61020823  0.74747333  0.12861445     0.04900
C1297       C  0.77739432  0.80688072  0.16064939     0.02900
C1298       C  0.81085449  0.77846928  0.16116195     0.02900
C1299       C  0.84357875  0.78144382  0.12836823    -0.17700
C1300       C  0.84778198  0.81632207  0.09662908     0.02900
C1301       C  0.81534891  0.84623953  0.09656357     0.02900
C1302       C  0.77891117  0.83936954  0.12807815    -0.17700
H1303       H  0.75553362  0.86369520  0.12863578     0.04900
H1304       H  0.87007897  0.76033135  0.12872707     0.04900
C1305       C  0.97179720  0.69565334  0.33750510     0.02900
C1306       C  0.53368798  0.72405444  0.33699205     0.02900
C1307       C  0.56344770  0.72104562  0.36977320    -0.17700
C1308       C  0.53275768  0.68614455  0.40150580     0.02900
C1309       C  0.97038189  0.65622299  0.40157242     0.02900
C1310       C  0.94080642  0.66311452  0.37006526    -0.17700
H1311       H  0.89308401  0.63877903  0.36950484     0.04900
H1312       H  0.61107776  0.74216348  0.36941086     0.04900
C1313       C  0.77885587  0.81051621  0.33697753     0.02900
C1314       C  0.80719535  0.77698877  0.33750468     0.02900
C1315       C  0.83964433  0.77845569  0.37009081    -0.17700
C1316       C  0.84655408  0.81491202  0.40159840     0.02900
C1317       C  0.81671154  0.84741759  0.40151382     0.02900
C1318       C  0.78185894  0.84325565  0.36976496    -0.17700
H1319       H  0.76079099  0.86979509  0.36939500     0.04900
H1320       H  0.86392613  0.75503324  0.36954655     0.04900
C1321       C  0.72588404  0.53110576  0.33751088     0.02900
C1322       C  0.69237487  0.96922835  0.33699651     0.02900
C1323       C  0.65960573  0.93948289  0.36978193    -0.17700
C1324       C  0.65542433  0.97017123  0.40151848     0.02900
C1325       C  0.68791452  0.53253125  0.40158987     0.02900
C1326       C  0.72438579  0.56209005  0.37008027    -0.17700
H1327       H  0.74780579  0.60980015  0.36952210     0.04900
H1328       H  0.63306758  0.89186570  0.36942148     0.04900
C1329       C  0.72440191  0.53331810  0.16116131     0.02900
C1330       C  0.69604208  0.97144489  0.16063875     0.02900
C1331       C  0.66354635  0.94046344  0.12806373    -0.17700
C1332       C  0.65664548  0.97002557  0.09655626     0.02900
C1333       C  0.68652885  0.53238374  0.09663410     0.02900
C1334       C  0.72140121  0.56306793  0.12837774    -0.17700
H1335       H  0.74249749  0.61068349  0.12874569     0.04900
H1336       H  0.63923757  0.89275288  0.12861426     0.04900
O1337       O  0.57734664  0.80760138  0.20184375    -0.81200
C1338       C  0.75121634  0.81797811  0.30195907     0.98200
O1339       O  0.71996021  0.77492553  0.28008499    -0.70300
O1340       O  0.61141535  0.74409263  0.29464103    -0.73900
Al1341     Al  0.65381969  0.76076568  0.24824427     1.49000
C1342       C  0.56878565  0.75172828  0.30197517     0.93400
O1343       O  0.63466396  0.89149525  0.29464721    -0.80100
O1344       O  0.73226951  0.92559756  0.20185409    -0.73700
Al1345     Al  0.60892174  0.84908710  0.24824981     1.90100
O1346       O  0.72803268  0.94594864  0.28012605    -0.72700
O1347       O  0.77288252  0.85552789  0.21652875    -0.72600
O1348       O  0.75887637  0.86825293  0.29463926    -0.78300
O1349       O  0.69531049  0.77069336  0.20185003    -0.76500
O1350       O  0.66831532  0.83462399  0.24796489    -1.12600
O1351       O  0.58460523  0.73006551  0.21653653    -0.71800
C1352       C  0.56561763  0.75584187  0.19503865     0.98900
C1353       C  0.68494936  0.93412619  0.30198410     0.95300
Al1354     Al  0.74219620  0.89401176  0.24825225     1.55600
O1355       O  0.55695132  0.78295292  0.28010315    -0.76400
C1356       C  0.74709627  0.81073090  0.19505335     0.99500
C1357       C  0.69221547  0.93730504  0.19505146     0.94400
O1358       O  0.64743041  0.91828934  0.21654435    -0.81700
O1359       O  0.86859039  0.75848472  0.70350685    -0.81200
C1360       C  0.75618446  0.56524787  0.80309747     0.98200
O1361       O  0.73039444  0.58423922  0.78161214    -0.70300
O1362       O  0.77100004  0.69492138  0.79629486    -0.73900
Al1363     Al  0.76107920  0.65343127  0.74989812     1.49000
C1364       C  0.81104656  0.74669414  0.80309675     0.93400
O1365       O  0.92593984  0.73187220  0.79629169    -0.80100
O1366       O  0.89184553  0.63430920  0.70348563    -0.73700
Al1367     Al  0.89435323  0.74180251  0.74989302     1.90100
O1368       O  0.91867010  0.64707953  0.78158420    -0.72700
O1369       O  0.78329623  0.55659441  0.71805144    -0.72600
O1370       O  0.80796404  0.57699480  0.79629328    -0.78300
O1371       O  0.74440752  0.61102473  0.70350531    -0.76500
O1372       O  0.83495969  0.66793727  0.75017709    -1.12600
O1373       O  0.77522875  0.71954837  0.71804429    -0.71800
C1374       C  0.81830079  0.75081579  0.69617873     0.98900
C1375       C  0.93765950  0.69183451  0.80309013     0.95300
Al1376     Al  0.84944566  0.60856894  0.74988853     1.55600
O1377       O  0.85585489  0.77247488  0.78162090    -0.76400
C1378       C  0.75205620  0.56841005  0.69617841     0.99500
C1379       C  0.93448006  0.68458462  0.69614837     0.94400
O1380       O  0.94630705  0.72765089  0.71801373    -0.81700
N1381       N  0.62502078  0.62504808  0.55839804    -0.36000
N1382       N  0.57899417  0.66811710  0.99923018    -0.56600
N1383       N  0.62541075  0.62461458  0.93974398    -0.36000
N1384       N  0.66846793  0.57857784  0.99890985    -0.56600
C1385       C  0.58864631  0.63671858  0.57946278     0.27600
C1386       C  0.63551883  0.58770930  0.57923230     0.27600
C1387       C  0.58807943  0.63513265  0.91890845     0.27600
C1388       C  0.63705865  0.58822960  0.91868167     0.27600
C1389       C  0.57494692  0.69684064  0.53029363     0.36200
C1390       C  0.57429368  0.69578631  0.96783126     0.36200
C1391       C  0.69615530  0.57388989  0.53030581     0.36200
C1392       C  0.69719453  0.57452854  0.96784543     0.36200
C1393       C  0.57776832  0.60826262  0.61479733    -0.21300
C1394       C  0.60721786  0.57729667  0.61463462    -0.21300
C1395       C  0.57765000  0.60683285  0.88350769    -0.21300
C1396       C  0.60859254  0.57735903  0.88334862    -0.21300
C1397       C  0.56948811  0.74436510  0.51871257    -0.22300
C1398       C  0.56909646  0.74371277  0.97883342    -0.22300
C1399       C  0.74409595  0.56869882  0.51930097    -0.22300
C1400       C  0.74473911  0.56908207  0.97942211    -0.22300
C1401       C  0.56777828  0.67485117  0.56817910    -0.17700
C1402       C  0.67308891  0.56613790  0.56792237    -0.17700
C1403       C  0.67519210  0.56735597  0.92996332    -0.17700
C1404       C  0.56652889  0.67271566  0.93021566    -0.17700
H1405       H  0.55288228  0.61093772  0.63879212     0.15200
H1406       H  0.60912982  0.55182906  0.63852587     0.15200
H1407       H  0.55219064  0.60876428  0.85961416     0.15200
H1408       H  0.61124987  0.55246508  0.85935614     0.15200
H1409       H  0.56347287  0.77436770  0.53702624     0.13500
H1410       H  0.56274956  0.77315591  0.96016069     0.13500
H1411       H  0.77355538  0.56236466  0.53797227     0.13500
H1412       H  0.77474916  0.56307148  0.96110588     0.13500
H1413       H  0.64608852  0.64586321  0.53290399     0.26800
H1414       H  0.64624155  0.64567681  0.96523547     0.26800
N1415       N  0.87831542  0.00161301  0.93974647    -0.36000
N1416       N  0.83479534  0.91170538  0.49923196    -0.56600
N1417       N  0.87791310  0.00083787  0.55839294    -0.36000
N1418       N  0.92434917  0.59074280  0.99890284    -0.56600
C1419       C  0.86779259  0.95376679  0.91891426     0.27600
C1420       C  0.91470778  0.54966194  0.91868027     0.27600
C1421       C  0.86625433  0.95279863  0.57945883     0.27600
C1422       C  0.91525203  0.54869551  0.57922654     0.27600
C1423       C  0.80711231  0.87930849  0.96784142     0.36200
C1424       C  0.80607382  0.87893683  0.53030348     0.36200
C1425       C  0.92839750  0.62350148  0.96782942     0.36200
C1426       C  0.92905918  0.62313194  0.53029003     0.36200
C1427       C  0.89610636  0.97165589  0.88351468    -0.21300
C1428       C  0.92558819  0.53208088  0.88335131    -0.21300
C1429       C  0.89472721  0.97039916  0.61479160    -0.21300
C1430       C  0.92568245  0.53082571  0.61462859    -0.21300
C1431       C  0.75917181  0.82616628  0.97885593    -0.22300
C1432       C  0.75852973  0.82592371  0.51873548    -0.22300
C1433       C  0.93387111  0.67649750  0.97939189    -0.22300
C1434       C  0.93426892  0.67625736  0.51927049    -0.22300
C1435       C  0.83018343  0.89461940  0.93022380    -0.17700
C1436       C  0.93556323  0.60866680  0.92995117    -0.17700
C1437       C  0.93680649  0.60783472  0.56791273    -0.17700
C1438       C  0.82809354  0.89378416  0.56818272    -0.17700
H1439       H  0.89417217  0.94427188  0.85962377     0.15200
H1440       H  0.95048200  0.55964607  0.85935633     0.15200
H1441       H  0.89205783  0.94284537  0.63878827     0.15200
H1442       H  0.95115092  0.55822335  0.63851777     0.15200
H1443       H  0.72971752  0.79035201  0.96019270     0.13500
H1444       H  0.72852614  0.78989461  0.53705744     0.13500
H1445       H  0.93989684  0.71251298  0.96106550     0.13500
H1446       H  0.94062804  0.71206128  0.53793162     0.13500
H1447       H  0.85724373  0.00136999  0.96523180     0.26800
H1448       H  0.85707790  0.00106420  0.53290433     0.26800
N1449       N  0.00200574  0.87791616  0.55839306    -0.36000
N1450       N  0.59113786  0.92396201  0.99923510    -0.56600
N1451       N  0.00119706  0.87747897  0.93975148    -0.36000
N1452       N  0.91206095  0.83433215  0.99891578    -0.56600
C1453       C  0.55006217  0.91432937  0.57945201     0.27600
C1454       C  0.95414461  0.86738423  0.57922456     0.26800
C1455       C  0.54905411  0.91483667  0.91891931     0.27600
C1456       C  0.95313557  0.86580227  0.91869102     0.27600
C1457       C  0.62391981  0.92803066  0.53030414     0.36200
C1458       C  0.62353051  0.92867445  0.96784577     0.36200
C1459       C  0.87966393  0.80666986  0.53031113     0.36200
C1460       C  0.87927309  0.80561515  0.96784914     0.36200
C1461       C  0.53247238  0.92521556  0.61477640    -0.21300
C1462       C  0.97203218  0.89571192  0.61461780    -0.21300
C1463       C  0.53116345  0.92526165  0.88352245    -0.21300
C1464       C  0.97072262  0.89427992  0.88336102    -0.21300
C1465       C  0.67693409  0.93351776  0.51873776    -0.22300
C1466       C  0.67668166  0.93390481  0.97885919    -0.22300
C1467       C  0.82650065  0.75874294  0.51930501    -0.22300
C1468       C  0.82624588  0.75809060  0.97942503    -0.22300
C1469       C  0.60908365  0.93519963  0.56817984    -0.17700
C1470       C  0.89498576  0.82976074  0.56792172    -0.17700
C1471       C  0.89411266  0.82763311  0.92997055    -0.17700
C1472       C  0.60821381  0.93641338  0.93022802    -0.17700
H1473       H  0.56004282  0.95013023  0.63876501     0.15200
H1474       H  0.94463722  0.89377373  0.63850783     0.15200
H1475       H  0.55855769  0.95074685  0.85963586     0.15200
H1476       H  0.94315093  0.89160085  0.85936819     0.15200
H1477       H  0.71296844  0.93955993  0.53706100     0.13500
H1478       H  0.71249418  0.94027186  0.96019388     0.13500
H1479       H  0.79067803  0.72930890  0.53797349     0.13500
H1480       H  0.79019773  0.72809743  0.96110852     0.13500
H1481       H  0.00176956  0.85683974  0.53291324     0.26800
H1482       H  0.00144292  0.85664963  0.96523669     0.26800
C1483       C  0.96959101  0.69201328  0.66113388     0.02900
C1484       C  0.53148247  0.72553917  0.66062007     0.02900
C1485       C  0.56248561  0.72404182  0.62805489    -0.17700
C1486       C  0.53293101  0.68756054  0.59654872     0.02900
C1487       C  0.97055481  0.65504825  0.59662081     0.02900
C1488       C  0.93984757  0.65922520  0.62835320    -0.17700
H1489       H  0.89221981  0.63267207  0.62871516     0.04900
H1490       H  0.61020837  0.74747345  0.62861446     0.04900
C1491       C  0.77739438  0.80688075  0.66064941     0.02900
C1492       C  0.81085457  0.77846932  0.66116193     0.02900
C1493       C  0.84357886  0.78144390  0.62836821    -0.17700
C1494       C  0.84778198  0.81632213  0.59662906     0.02900
C1495       C  0.81534883  0.84623952  0.59656352     0.02900
C1496       C  0.77891105  0.83936946  0.62807811    -0.17700
H1497       H  0.75553336  0.86369495  0.62863569     0.04900
H1498       H  0.87007909  0.76033154  0.62872703     0.04900
C1499       C  0.97179729  0.69565336  0.83750512     0.02900
C1500       C  0.53368805  0.72405443  0.83699206     0.02900
C1501       C  0.56344775  0.72104559  0.86977320    -0.17700
C1502       C  0.53275779  0.68614456  0.90150583     0.02900
C1503       C  0.97038200  0.65622304  0.90157243     0.02900
C1504       C  0.94080656  0.66311456  0.87006528    -0.17700
H1505       H  0.89308415  0.63877903  0.86950489     0.04900
H1506       H  0.61107788  0.74216350  0.86941079     0.04900
C1507       C  0.77885595  0.81051621  0.83697744     0.02900
C1508       C  0.80719555  0.77698890  0.83750458     0.02900
C1509       C  0.83964455  0.77845583  0.87009067    -0.17700
C1510       C  0.84655412  0.81491198  0.90159837     0.02900
C1511       C  0.81671150  0.84741749  0.90151379     0.02900
C1512       C  0.78185889  0.84325551  0.86976493    -0.17700
H1513       H  0.76079086  0.86979491  0.86939495     0.04900
H1514       H  0.86392639  0.75503342  0.86954633     0.04900
C1515       C  0.72588392  0.53110576  0.83751086     0.02900
C1516       C  0.69237491  0.96922835  0.83699655     0.02900
C1517       C  0.65960574  0.93948297  0.86978196    -0.17700
C1518       C  0.65542441  0.97017128  0.90151850     0.02900
C1519       C  0.68791450  0.53253125  0.90158987     0.02900
C1520       C  0.72438565  0.56209005  0.87008023    -0.17700
H1521       H  0.74780561  0.60980015  0.86952204     0.04900
H1522       H  0.63306741  0.89186577  0.86942149     0.04900
C1523       C  0.72440180  0.53331814  0.66116136     0.02900
C1524       C  0.69604225  0.97144500  0.66063873     0.02900
C1525       C  0.66354653  0.94046346  0.62806377    -0.17700
C1526       C  0.65664547  0.97002549  0.59655629     0.02900
C1527       C  0.68652882  0.53238379  0.59663415     0.02900
C1528       C  0.72140105  0.56306797  0.62837780    -0.17700
H1529       H  0.74249730  0.61068351  0.62874573     0.04900
H1530       H  0.63923788  0.89275290  0.62861438     0.04900
O1531       O  0.57734683  0.80760140  0.70184381    -0.81200
C1532       C  0.75121647  0.81797818  0.80195900     0.98200
O1533       O  0.71996031  0.77492555  0.78008496    -0.70300
O1534       O  0.61141536  0.74409250  0.79464108    -0.73900
Al1535     Al  0.65381972  0.76076556  0.74824431     1.49000
C1536       C  0.56878574  0.75172821  0.80197521     0.93400
O1537       O  0.63466396  0.89149528  0.79464721    -0.80100
O1538       O  0.73226962  0.92559763  0.70185415    -0.73700
Al1539     Al  0.60892181  0.84908707  0.74824982     1.90100
O1540       O  0.72803268  0.94594870  0.78012607    -0.72700
O1541       O  0.77288254  0.85552777  0.71652887    -0.72600
O1542       O  0.75887633  0.86825296  0.79463927    -0.78300
O1543       O  0.69531058  0.77069317  0.70185010    -0.76500
O1544       O  0.66831534  0.83462391  0.74796493    -1.12600
O1545       O  0.58460521  0.73006542  0.71653657    -0.71800
C1546       C  0.56561770  0.75584189  0.69503869     0.98900
C1547       C  0.68494942  0.93412625  0.80198413     0.95300
Al1548     Al  0.74219620  0.89401175  0.74825230     1.55600
O1549       O  0.55695144  0.78295295  0.78010320    -0.76400
C1550       C  0.74709633  0.81073080  0.69505343     0.99500
C1551       C  0.69221556  0.93730508  0.69505146     0.94400
O1552       O  0.64743039  0.91828919  0.71654421    -0.81700
loop_ 
_geom_bond_atom_site_label_1 
_geom_bond_atom_site_label_2 
_geom_bond_distance 
_geom_bond_site_symmetry_2 
_ccdc_geom_bond_type 
O1           C16   1.258       .  A
O1           Al9   1.877       .  S
C2           O12   1.257       .  A
C2            O3   1.264       .  A
C2          C157   1.463       .  S
O3           Al5   1.921       .  S
O4            C6   1.257       .  A
O4           Al5   1.884       .  S
Al5          O13   1.877       .  S
Al5          O15   1.929       .  S
Al5          O14   1.780       .  S
C6           O19   1.264       .  A
C6          C150   1.463       .  S
O7           C17   1.257       .  A
O7           Al9   1.884       .  S
O8           C21   1.258       .  A
O8          Al18   1.877       .  S
Al9          O22   1.930       .  S
Al9          O19   1.921       .  S
Al9          O14   1.780       .  S
O10          C17   1.264       .  A
O10         Al18   1.921       .  S
O11          C20   1.264       .  A
O11         Al18   1.929       .  S
O12         Al18   1.884       .  S
O13          C20   1.258       .  A
O14         Al18   1.780       .  S
O15          C16   1.264       .  A
C16         C134   1.475       .  S
C17         C141   1.463       .  S
C20         C165   1.475       .  S
C21          O22   1.264       .  A
C21         C125   1.475       .  S
N23          C28   1.352       .  A
N23          C27   1.353       .  A
N23          H55   1.039       .  S
N24          C32   1.347       .  A
N24         C225   1.348       .  A
N25          C30   1.353       .  A
N25          C29   1.352       .  A
N25          H56   1.039       .  S
N26          C34   1.348       .  A
N26         C227   1.347       .  A
C27          C35   1.386       .  A
C27          C43   1.416       .  A
C28          C44   1.417       .  A
C28          C36   1.387       .  A
C29          C37   1.387       .  A
C29          C46   1.417       .  A
C30          C45   1.416       .  A
C30          C38   1.386       .  A
C31         N218   1.348   1_554  A
C31          C43   1.407       .  A
C31          C39   1.385       .  A
C32          C46   1.407       .  A
C32          C40   1.386       .  A
C33         N220   1.347   1_554  A
C33          C41   1.386       .  A
C33          C44   1.407       .  A
C34          C42   1.385       .  A
C34          C45   1.407       .  A
C35          C36   1.374       .  A
C35          H47   1.080       .  S
C36          H48   1.080       .  S
C37          C38   1.374       .  A
C37          H49   1.080       .  S
C38          H50   1.080       .  S
C39         C234   1.380   1_554  A
C39          H51   1.083       .  S
C40         C233   1.380       .  A
C40          H52   1.083       .  S
C41         C236   1.380   1_554  A
C41          H53   1.083       .  S
C42         C235   1.380       .  A
C42          H54   1.083       .  S
C43         C128   1.489       .  S
C44         C169   1.487       .  S
C45         C161   1.489       .  S
C46         C144   1.487       .  S
N57          C61   1.352       .  A
N57         C450   1.353       .  A
N57          H89   1.039       .  S
N58          C66   1.348   1_556  A
N58         C259   1.347       .  A
N59          C63   1.353       .  A
N59         C452   1.352       .  A
N59          H90   1.039       .  S
N60          C67   1.348       .  A
N60         C262   1.347       .  A
C61          C69   1.387       .  A
C61          C77   1.417       .  A
C62         N445   1.353       .  A
C62          C78   1.416       .  A
C62          C70   1.386       .  A
C63          C71   1.386       .  A
C63          C80   1.416       .  A
C64         N447   1.352       .  A
C64          C79   1.417       .  A
C64          C72   1.387       .  A
C65         N252   1.347       .  A
C65          C77   1.407       .  A
C65          C73   1.386       .  A
C66          C80   1.407       .  A
C66          C74   1.385       .  A
C67          C75   1.385       .  A
C67          C78   1.407       .  A
C68         N254   1.347   1_554  A
C68          C76   1.386       .  A
C68          C79   1.407       .  A
C69         C458   1.374       .  A
C69          H81   1.080       .  S
C70         C457   1.374   1_545  A
C70          H82   1.080       .  S
C71         C460   1.374       .  A
C71          H83   1.080       .  S
C72         C459   1.374   1_545  A
C72          H84   1.080       .  S
C73         C268   1.380       .  A
C73          H85   1.083       .  S
C74         C267   1.380   1_554  A
C74          H86   1.083       .  S
C75         C270   1.380       .  A
C75          H87   1.083       .  S
C76         C269   1.380   1_554  A
C76          H88   1.083       .  S
C77         C153   1.487       .  S
C78         C145   1.489       .  S
C79         C129   1.487       .  S
C80         C137   1.489       .  S
N91          C96   1.352       .  A
N91         C871   1.353       .  A
N91         H123   1.039       .  S
N92         C100   1.347       .  A
N92         C293   1.348       .  A
N93          C98   1.353       .  A
N93         C873   1.352       .  A
N93         H124   1.039       .  S
N94         C102   1.348       .  A
N94         C295   1.347       .  A
C95         N867   1.353       .  A
C95         C103   1.386       .  A
C95         C111   1.416       .  A
C96         C112   1.417       .  A
C96         C104   1.387       .  A
C97         N869   1.352       .  A
C97         C105   1.387       .  A
C97         C114   1.417       .  A
C98         C113   1.416       .  A
C98         C106   1.386       .  A
C99         N286   1.348   1_554  A
C99         C111   1.407       .  A
C99         C107   1.385       .  A
C100        C114   1.407       .  A
C100        C108   1.386       .  A
C101        N288   1.347   1_554  A
C101        C109   1.386       .  A
C101        C112   1.407       .  A
C102        C110   1.385       .  A
C102        C113   1.407       .  A
C103        C880   1.374   1_455  A
C103        H115   1.080       .  S
C104        C879   1.374       .  A
C104        H116   1.080       .  S
C105        C882   1.374   1_455  A
C105        H117   1.080       .  S
C106        C881   1.374       .  A
C106        H118   1.080       .  S
C107        C302   1.380   1_554  A
C107        H119   1.083       .  S
C108        C301   1.380       .  A
C108        H120   1.083       .  S
C109        C304   1.380   1_554  A
C109        H121   1.083       .  S
C110        C303   1.380       .  A
C110        H122   1.083       .  S
C111        C168   1.489       .  S
C112        C136   1.487       .  S
C113        C152   1.489       .  S
C114        C160   1.487       .  S
C125        C130   1.402       .  A
C125        C902   1.409       .  A
C126        C188   1.463       .  S
C126        C127   1.402       .  A
C126        C901   1.409   1_455  A
C127        C128   1.402       .  A
C127        H132   1.085       .  S
C128        C905   1.419   1_455  A
C129        C130   1.399       .  A
C129        C904   1.419       .  A
C130        H131   1.085       .  S
C133        C192   1.463       .  S
C133        C134   1.409       .  A
C133        C138   1.402       .  A
C134        C135   1.402       .  A
C135        C136   1.399       .  A
C135        H140   1.085       .  S
C136        C137   1.419       .  A
C137        C138   1.402       .  A
C138        H139   1.085       .  S
C141        C146   1.402       .  A
C141        C918   1.409       .  A
C142        C178   1.475       .  S
C142        C143   1.402       .  A
C142        C917   1.409   1_455  A
C143        C144   1.399       .  A
C143        H148   1.085       .  S
C144        C921   1.419   1_455  A
C145        C146   1.402       .  A
C145        C920   1.419       .  A
C146        H147   1.085       .  S
C149        C174   1.475       .  S
C149        C150   1.409       .  A
C149        C154   1.402       .  A
C150        C151   1.402       .  A
C151        C152   1.402       .  A
C151        H156   1.085       .  S
C152        C153   1.419       .  A
C153        C154   1.399       .  A
C154        H155   1.085       .  S
C157        C162   1.402       .  A
C157        C546   1.409   1_545  A
C158        C189   1.475       .  S
C158        C159   1.402       .  A
C158        C545   1.409       .  A
C159        C160   1.399       .  A
C159        H164   1.085       .  S
C160        C549   1.419       .  A
C161        C162   1.402       .  A
C161        C548   1.419   1_545  A
C162        H163   1.085       .  S
C165        C170   1.402       .  A
C165        C554   1.409   1_545  A
C166        C193   1.463       .  S
C166        C167   1.402       .  A
C166        C553   1.409       .  A
C167        C168   1.402       .  A
C167        H172   1.085       .  S
C168        C557   1.419       .  A
C169        C170   1.399       .  A
C169        C556   1.419   1_545  A
C170        H171   1.085       .  S
O173        C188   1.257       .  A
O173       Al181   1.884       .  S
C174        O184   1.258       .  A
C174        O175   1.264       .  A
O175       Al177   1.929       .  S
O176        C178   1.258       .  A
O176       Al177   1.877       .  S
Al177       O185   1.884       .  S
Al177       O187   1.921       .  S
Al177       O186   1.780       .  S
C178        O191   1.264       .  A
O179        C189   1.258       .  A
O179       Al181   1.877       .  S
O180        C193   1.257       .  A
O180       Al190   1.884       .  S
Al181       O194   1.921       .  S
Al181       O191   1.929       .  S
Al181       O186   1.780       .  S
O182        C189   1.264       .  A
O182       Al190   1.930       .  S
O183        C192   1.264       .  A
O183       Al190   1.921       .  S
O184       Al190   1.877       .  S
O185        C192   1.257       .  A
O186       Al190   1.780       .  S
O187        C188   1.264       .  A
C193        O194   1.264       .  A
O195        C210   1.258       .  A
O195       Al203   1.877       .  S
C196        O206   1.257       .  A
C196        O197   1.264       .  A
C196        C351   1.463       .  S
O197       Al199   1.921       .  S
O198        C200   1.257       .  A
O198       Al199   1.884       .  S
Al199       O207   1.877       .  S
Al199       O209   1.929       .  S
Al199       O208   1.780       .  S
C200        O213   1.264       .  A
C200        C344   1.463       .  S
O201        C211   1.257       .  A
O201       Al203   1.884       .  S
O202        C215   1.258       .  A
O202       Al212   1.877       .  S
Al203       O216   1.930       .  S
Al203       O213   1.921       .  S
Al203       O208   1.780       .  S
O204        C211   1.264       .  A
O204       Al212   1.921       .  S
O205        C214   1.264       .  A
O205       Al212   1.929       .  S
O206       Al212   1.884       .  S
O207        C214   1.258       .  A
O208       Al212   1.780       .  S
O209        C210   1.264       .  A
C210        C328   1.475       .  S
C211        C335   1.463       .  S
C214        C359   1.475       .  S
C215        O216   1.264       .  A
C215        C319   1.475       .  S
N217        C222   1.352       .  A
N217        C221   1.353       .  A
N217        H249   1.039       .  S
N218        C226   1.347       .  A
N219        C224   1.353       .  A
N219        C223   1.352       .  A
N219        H250   1.039       .  S
N220        C228   1.348       .  A
C221        C229   1.386       .  A
C221        C237   1.416       .  A
C222        C238   1.417       .  A
C222        C230   1.387       .  A
C223        C231   1.387       .  A
C223        C240   1.417       .  A
C224        C239   1.416       .  A
C224        C232   1.386       .  A
C225        C237   1.407       .  A
C225        C233   1.385       .  A
C226        C240   1.407       .  A
C226        C234   1.386       .  A
C227        C235   1.386       .  A
C227        C238   1.407       .  A
C228        C236   1.385       .  A
C228        C239   1.407       .  A
C229        C230   1.374       .  A
C229        H241   1.080       .  S
C230        H242   1.080       .  S
C231        C232   1.374       .  A
C231        H243   1.080       .  S
C232        H244   1.080       .  S
C233        H245   1.083       .  S
C234        H246   1.083       .  S
C235        H247   1.083       .  S
C236        H248   1.083       .  S
C237        C322   1.489       .  S
C238        C363   1.487       .  S
C239        C355   1.489       .  S
C240        C338   1.487       .  S
N251        C644   1.353       .  A
N251        C255   1.352       .  A
N251        H283   1.039       .  S
N252        C260   1.348       .  A
N253        C646   1.352       .  A
N253        C257   1.353       .  A
N253        H284   1.039       .  S
N254        C261   1.348       .  A
C255        C263   1.387       .  A
C255        C271   1.417       .  A
C256        N639   1.353       .  A
C256        C272   1.416       .  A
C256        C264   1.386       .  A
C257        C265   1.386       .  A
C257        C274   1.416       .  A
C258        N641   1.352       .  A
C258        C273   1.417       .  A
C258        C266   1.387       .  A
C259        C271   1.407       .  A
C259        C267   1.386       .  A
C260        C274   1.407       .  A
C260        C268   1.385       .  A
C261        C269   1.385       .  A
C261        C272   1.407       .  A
C262        C270   1.386       .  A
C262        C273   1.407       .  A
C263        C652   1.374       .  A
C263        H275   1.080       .  S
C264        C651   1.374   1_545  A
C264        H276   1.080       .  S
C265        C654   1.374       .  A
C265        H277   1.080       .  S
C266        C653   1.374   1_545  A
C266        H278   1.080       .  S
C267        H279   1.083       .  S
C268        H280   1.083       .  S
C269        H281   1.083       .  S
C270        H282   1.083       .  S
C271        C347   1.487       .  S
C272        C339   1.489       .  S
C273        C323   1.487       .  S
C274        C331   1.489       .  S
N285        C290   1.352       .  A
N285       C1065   1.353       .  A
N285        H317   1.039       .  S
N286        C294   1.347       .  A
N287        C292   1.353       .  A
N287       C1067   1.352       .  A
N287        H318   1.039       .  S
N288        C296   1.348       .  A
C289       N1061   1.353       .  A
C289        C297   1.386       .  A
C289        C305   1.416       .  A
C290        C306   1.417       .  A
C290        C298   1.387       .  A
C291       N1063   1.352       .  A
C291        C299   1.387       .  A
C291        C308   1.417       .  A
C292        C307   1.416       .  A
C292        C300   1.386       .  A
C293        C305   1.407       .  A
C293        C301   1.385       .  A
C294        C308   1.407       .  A
C294        C302   1.386       .  A
C295        C303   1.386       .  A
C295        C306   1.407       .  A
C296        C304   1.385       .  A
C296        C307   1.407       .  A
C297       C1074   1.374   1_455  A
C297        H309   1.080       .  S
C298       C1073   1.374       .  A
C298        H310   1.080       .  S
C299       C1076   1.374   1_455  A
C299        H311   1.080       .  S
C300       C1075   1.374       .  A
C300        H312   1.080       .  S
C301        H313   1.083       .  S
C302        H314   1.083       .  S
C303        H315   1.083       .  S
C304        H316   1.083       .  S
C305        C362   1.489       .  S
C306        C330   1.487       .  S
C307        C346   1.489       .  S
C308        C354   1.487       .  S
C319       C1096   1.409       .  A
C319        C324   1.402       .  A
C320        C382   1.463       .  S
C320       C1095   1.409   1_455  A
C320        C321   1.402       .  A
C321        C322   1.402       .  A
C321        H326   1.085       .  S
C322       C1099   1.419   1_455  A
C323       C1098   1.419       .  A
C323        C324   1.399       .  A
C324        H325   1.085       .  S
C327        C386   1.463       .  S
C327        C328   1.409       .  A
C327        C332   1.402       .  A
C328        C329   1.402       .  A
C329        C330   1.399       .  A
C329        H334   1.085       .  S
C330        C331   1.419       .  A
C331        C332   1.402       .  A
C332        H333   1.085       .  S
C335       C1112   1.409       .  A
C335        C340   1.402       .  A
C336        C372   1.475       .  S
C336       C1111   1.409   1_455  A
C336        C337   1.402       .  A
C337        C338   1.399       .  A
C337        H342   1.085       .  S
C338       C1115   1.419   1_455  A
C339       C1114   1.419       .  A
C339        C340   1.402       .  A
C340        H341   1.085       .  S
C343        C368   1.475       .  S
C343        C344   1.409       .  A
C343        C348   1.402       .  A
C344        C345   1.402       .  A
C345        C346   1.402       .  A
C345        H350   1.085       .  S
C346        C347   1.419       .  A
C347        C348   1.399       .  A
C348        H349   1.085       .  S
C351        C740   1.409   1_545  A
C351        C356   1.402       .  A
C352        C383   1.475       .  S
C352        C739   1.409       .  A
C352        C353   1.402       .  A
C353        C354   1.399       .  A
C353        H358   1.085       .  S
C354        C743   1.419       .  A
C355        C742   1.419   1_545  A
C355        C356   1.402       .  A
C356        H357   1.085       .  S
C359        C748   1.409   1_545  A
C359        C364   1.402       .  A
C360        C387   1.463       .  S
C360        C747   1.409       .  A
C360        C361   1.402       .  A
C361        C362   1.402       .  A
C361        H366   1.085       .  S
C362        C751   1.419       .  A
C363        C750   1.419   1_545  A
C363        C364   1.399       .  A
C364        H365   1.085       .  S
O367        C382   1.257       .  A
O367       Al375   1.884       .  S
C368        O378   1.258       .  A
C368        O369   1.264       .  A
O369       Al371   1.929       .  S
O370        C372   1.258       .  A
O370       Al371   1.877       .  S
Al371       O379   1.884       .  S
Al371       O381   1.921       .  S
Al371       O380   1.780       .  S
C372        O385   1.264       .  A
O373        C383   1.258       .  A
O373       Al375   1.877       .  S
O374        C387   1.257       .  A
O374       Al384   1.884       .  S
Al375       O388   1.921       .  S
Al375       O385   1.929       .  S
Al375       O380   1.780       .  S
O376        C383   1.264       .  A
O376       Al384   1.930       .  S
O377        C386   1.264       .  A
O377       Al384   1.921       .  S
O378       Al384   1.877       .  S
O379        C386   1.257       .  A
O380       Al384   1.780       .  S
O381        C382   1.264       .  A
C387        O388   1.264       .  A
O389        C404   1.258       .  A
O389       Al397   1.877       .  S
C390        O400   1.257       .  A
C390        O391   1.264       .  A
C390        C545   1.463       .  S
O391       Al393   1.921       .  S
O392        C394   1.257       .  A
O392       Al393   1.884       .  S
Al393       O401   1.877       .  S
Al393       O403   1.929       .  S
Al393       O402   1.780       .  S
C394        O407   1.264       .  A
C394        C538   1.463       .  S
O395        C405   1.257       .  A
O395       Al397   1.884       .  S
O396        C409   1.258       .  A
O396       Al406   1.877       .  S
Al397       O410   1.930       .  S
Al397       O407   1.921       .  S
Al397       O402   1.780       .  S
O398        C405   1.264       .  A
O398       Al406   1.921       .  S
O399        C408   1.264       .  A
O399       Al406   1.929       .  S
O400       Al406   1.884       .  S
O401        C408   1.258       .  A
O402       Al406   1.780       .  S
O403        C404   1.264       .  A
C404        C522   1.475       .  S
C405        C529   1.463       .  S
C408        C553   1.475       .  S
C409        O410   1.264       .  A
C409        C513   1.475       .  S
N411        C416   1.352       .  A
N411        C415   1.353       .  A
N411        H443   1.039       .  S
N412        C613   1.348       .  A
N412        C420   1.347       .  A
N413        C418   1.353       .  A
N413        C417   1.352       .  A
N413        H444   1.039       .  S
N414        C615   1.347       .  A
N414        C422   1.348       .  A
C415        C423   1.386       .  A
C415        C431   1.416       .  A
C416        C432   1.417       .  A
C416        C424   1.387       .  A
C417        C425   1.387       .  A
C417        C434   1.417       .  A
C418        C433   1.416       .  A
C418        C426   1.386       .  A
C419        N606   1.348   1_554  A
C419        C431   1.407       .  A
C419        C427   1.385       .  A
C420        C434   1.407       .  A
C420        C428   1.386       .  A
C421        N608   1.347   1_554  A
C421        C429   1.386       .  A
C421        C432   1.407       .  A
C422        C430   1.385       .  A
C422        C433   1.407       .  A
C423        C424   1.374       .  A
C423        H435   1.080       .  S
C424        H436   1.080       .  S
C425        C426   1.374       .  A
C425        H437   1.080       .  S
C426        H438   1.080       .  S
C427        C622   1.380   1_554  A
C427        H439   1.083       .  S
C428        C621   1.380       .  A
C428        H440   1.083       .  S
C429        C624   1.380   1_554  A
C429        H441   1.083       .  S
C430        C623   1.380       .  A
C430        H442   1.083       .  S
C431        C516   1.489       .  S
C432        C557   1.487       .  S
C433        C549   1.489       .  S
C434        C532   1.487       .  S
N445        C449   1.352   1_545  A
N445        H477   1.039       .  S
N446        C647   1.347       .  A
N446        C454   1.348   1_556  A
N447        C451   1.353   1_545  A
N447        H478   1.039       .  S
N448        C455   1.348       .  A
N448        C650   1.347       .  A
C449        C457   1.387       .  A
C449        C465   1.417       .  A
C450        C466   1.416       .  A
C450        C458   1.386       .  A
C451        C459   1.386       .  A
C451        C468   1.416       .  A
C452        C467   1.417       .  A
C452        C460   1.387       .  A
C453        N640   1.347       .  A
C453        C465   1.407       .  A
C453        C461   1.386       .  A
C454        C468   1.407       .  A
C454        C462   1.385       .  A
C455        C463   1.385       .  A
C455        C466   1.407       .  A
C456        N642   1.347   1_554  A
C456        C464   1.386       .  A
C456        C467   1.407       .  A
C457        H469   1.080       .  S
C458        H470   1.080       .  S
C459        H471   1.080       .  S
C460        H472   1.080       .  S
C461        C656   1.380       .  A
C461        H473   1.083       .  S
C462        C655   1.380   1_554  A
C462        H474   1.083       .  S
C463        C658   1.380       .  A
C463        H475   1.083       .  S
C464        C657   1.380   1_554  A
C464        H476   1.083       .  S
C465        C541   1.487       .  S
C466        C533   1.489       .  S
C467        C517   1.487       .  S
C468        C525   1.489       .  S
N479        C484   1.352       .  A
N479       C1259   1.353       .  A
N479        H511   1.039       .  S
N480        C681   1.348       .  A
N480        C488   1.347       .  A
N481        C486   1.353       .  A
N481       C1261   1.352       .  A
N481        H512   1.039       .  S
N482        C683   1.347       .  A
N482        C490   1.348       .  A
C483       N1255   1.353       .  A
C483        C491   1.386       .  A
C483        C499   1.416       .  A
C484        C500   1.417       .  A
C484        C492   1.387       .  A
C485       N1257   1.352       .  A
C485        C493   1.387       .  A
C485        C502   1.417       .  A
C486        C501   1.416       .  A
C486        C494   1.386       .  A
C487        N674   1.348   1_554  A
C487        C499   1.407       .  A
C487        C495   1.385       .  A
C488        C502   1.407       .  A
C488        C496   1.386       .  A
C489        N676   1.347   1_554  A
C489        C497   1.386       .  A
C489        C500   1.407       .  A
C490        C498   1.385       .  A
C490        C501   1.407       .  A
C491       C1268   1.374   1_455  A
C491        H503   1.080       .  S
C492       C1267   1.374       .  A
C492        H504   1.080       .  S
C493       C1270   1.374   1_455  A
C493        H505   1.080       .  S
C494       C1269   1.374       .  A
C494        H506   1.080       .  S
C495        C690   1.380   1_554  A
C495        H507   1.083       .  S
C496        C689   1.380       .  A
C496        H508   1.083       .  S
C497        C692   1.380   1_554  A
C497        H509   1.083       .  S
C498        C691   1.380       .  A
C498        H510   1.083       .  S
C499        C556   1.489       .  S
C500        C524   1.487       .  S
C501        C540   1.489       .  S
C502        C548   1.487       .  S
C513       C1290   1.409       .  A
C513        C518   1.402       .  A
C514        C576   1.463       .  S
C514       C1289   1.409   1_455  A
C514        C515   1.402       .  A
C515        C516   1.402       .  A
C515        H520   1.085       .  S
C516       C1293   1.419   1_455  A
C517       C1292   1.419       .  A
C517        C518   1.399       .  A
C518        H519   1.085       .  S
C521        C580   1.463       .  S
C521        C522   1.409       .  A
C521        C526   1.402       .  A
C522        C523   1.402       .  A
C523        C524   1.399       .  A
C523        H528   1.085       .  S
C524        C525   1.419       .  A
C525        C526   1.402       .  A
C526        H527   1.085       .  S
C529       C1306   1.409       .  A
C529        C534   1.402       .  A
C530        C566   1.475       .  S
C530       C1305   1.409   1_455  A
C530        C531   1.402       .  A
C531        C532   1.399       .  A
C531        H536   1.085       .  S
C532       C1309   1.419   1_455  A
C533       C1308   1.419       .  A
C533        C534   1.402       .  A
C534        H535   1.085       .  S
C537        C562   1.475       .  S
C537        C538   1.409       .  A
C537        C542   1.402       .  A
C538        C539   1.402       .  A
C539        C540   1.402       .  A
C539        H544   1.085       .  S
C540        C541   1.419       .  A
C541        C542   1.399       .  A
C542        H543   1.085       .  S
C545        C550   1.402       .  A
C546        C577   1.475       .  S
C546        C547   1.402       .  A
C547        C548   1.399       .  A
C547        H552   1.085       .  S
C549        C550   1.402       .  A
C550        H551   1.085       .  S
C553        C558   1.402       .  A
C554        C581   1.463       .  S
C554        C555   1.402       .  A
C555        C556   1.402       .  A
C555        H560   1.085       .  S
C557        C558   1.399       .  A
C558        H559   1.085       .  S
O561        C576   1.257       .  A
O561       Al569   1.884       .  S
C562        O572   1.258       .  A
C562        O563   1.264       .  A
O563       Al565   1.929       .  S
O564        C566   1.258       .  A
O564       Al565   1.877       .  S
Al565       O573   1.884       .  S
Al565       O575   1.921       .  S
Al565       O574   1.780       .  S
C566        O579   1.264       .  A
O567        C577   1.258       .  A
O567       Al569   1.877       .  S
O568        C581   1.257       .  A
O568       Al578   1.884       .  S
Al569       O582   1.921       .  S
Al569       O579   1.929       .  S
Al569       O574   1.780       .  S
O570        C577   1.264       .  A
O570       Al578   1.930       .  S
O571        C580   1.264       .  A
O571       Al578   1.921       .  S
O572       Al578   1.877       .  S
O573        C580   1.257       .  A
O574       Al578   1.780       .  S
O575        C576   1.264       .  A
C581        O582   1.264       .  A
O583        C598   1.258       .  A
O583       Al591   1.877       .  S
C584        O594   1.257       .  A
C584        O585   1.264       .  A
C584        C739   1.463       .  S
O585       Al587   1.921       .  S
O586        C588   1.257       .  A
O586       Al587   1.884       .  S
Al587       O595   1.877       .  S
Al587       O597   1.929       .  S
Al587       O596   1.780       .  S
C588        O601   1.264       .  A
C588        C732   1.463       .  S
O589        C599   1.257       .  A
O589       Al591   1.884       .  S
O590        C603   1.258       .  A
O590       Al600   1.877       .  S
Al591       O604   1.930       .  S
Al591       O601   1.921       .  S
Al591       O596   1.780       .  S
O592        C599   1.264       .  A
O592       Al600   1.921       .  S
O593        C602   1.264       .  A
O593       Al600   1.929       .  S
O594       Al600   1.884       .  S
O595        C602   1.258       .  A
O596       Al600   1.780       .  S
O597        C598   1.264       .  A
C598        C716   1.475       .  S
C599        C723   1.463       .  S
C602        C747   1.475       .  S
C603        O604   1.264       .  A
C603        C707   1.475       .  S
N605        C610   1.352       .  A
N605        C609   1.353       .  A
N605        H637   1.039       .  S
N606        C614   1.347       .  A
N607        C612   1.353       .  A
N607        C611   1.352       .  A
N607        H638   1.039       .  S
N608        C616   1.348       .  A
C609        C617   1.386       .  A
C609        C625   1.416       .  A
C610        C626   1.417       .  A
C610        C618   1.387       .  A
C611        C619   1.387       .  A
C611        C628   1.417       .  A
C612        C627   1.416       .  A
C612        C620   1.386       .  A
C613        C625   1.407       .  A
C613        C621   1.385       .  A
C614        C628   1.407       .  A
C614        C622   1.386       .  A
C615        C623   1.386       .  A
C615        C626   1.407       .  A
C616        C624   1.385       .  A
C616        C627   1.407       .  A
C617        C618   1.374       .  A
C617        H629   1.080       .  S
C618        H630   1.080       .  S
C619        C620   1.374       .  A
C619        H631   1.080       .  S
C620        H632   1.080       .  S
C621        H633   1.083       .  S
C622        H634   1.083       .  S
C623        H635   1.083       .  S
C624        H636   1.083       .  S
C625        C710   1.489       .  S
C626        C751   1.487       .  S
C627        C743   1.489       .  S
C628        C726   1.487       .  S
N639        C643   1.352   1_545  A
N639        H671   1.039       .  S
N640        C648   1.348       .  A
N641        C645   1.353   1_545  A
N641        H672   1.039       .  S
N642        C649   1.348       .  A
C643        C651   1.387       .  A
C643        C659   1.417       .  A
C644        C660   1.416       .  A
C644        C652   1.386       .  A
C645        C653   1.386       .  A
C645        C662   1.416       .  A
C646        C661   1.417       .  A
C646        C654   1.387       .  A
C647        C659   1.407       .  A
C647        C655   1.386       .  A
C648        C662   1.407       .  A
C648        C656   1.385       .  A
C649        C657   1.385       .  A
C649        C660   1.407       .  A
C650        C658   1.386       .  A
C650        C661   1.407       .  A
C651        H663   1.080       .  S
C652        H664   1.080       .  S
C653        H665   1.080       .  S
C654        H666   1.080       .  S
C655        H667   1.083       .  S
C656        H668   1.083       .  S
C657        H669   1.083       .  S
C658        H670   1.083       .  S
C659        C735   1.487       .  S
C660        C727   1.489       .  S
C661        C711   1.487       .  S
C662        C719   1.489       .  S
N673        C678   1.352       .  A
N673       C1453   1.353       .  A
N673        H705   1.039       .  S
N674        C682   1.347       .  A
N675        C680   1.353       .  A
N675       C1455   1.352       .  A
N675        H706   1.039       .  S
N676        C684   1.348       .  A
C677       N1449   1.353       .  A
C677        C685   1.386       .  A
C677        C693   1.416       .  A
C678        C694   1.417       .  A
C678        C686   1.387       .  A
C679       N1451   1.352       .  A
C679        C687   1.387       .  A
C679        C696   1.417       .  A
C680        C695   1.416       .  A
C680        C688   1.386       .  A
C681        C693   1.407       .  A
C681        C689   1.385       .  A
C682        C696   1.407       .  A
C682        C690   1.386       .  A
C683        C691   1.386       .  A
C683        C694   1.407       .  A
C684        C692   1.385       .  A
C684        C695   1.407       .  A
C685       C1462   1.374   1_455  A
C685        H697   1.080       .  S
C686       C1461   1.374       .  A
C686        H698   1.080       .  S
C687       C1464   1.374   1_455  A
C687        H699   1.080       .  S
C688       C1463   1.374       .  A
C688        H700   1.080       .  S
C689        H701   1.083       .  S
C690        H702   1.083       .  S
C691        H703   1.083       .  S
C692        H704   1.083       .  S
C693        C750   1.489       .  S
C694        C718   1.487       .  S
C695        C734   1.489       .  S
C696        C742   1.487       .  S
C707       C1484   1.409       .  A
C707        C712   1.402       .  A
C708        C770   1.463       .  S
C708       C1483   1.409   1_455  A
C708        C709   1.402       .  A
C709        C710   1.402       .  A
C709        H714   1.085       .  S
C710       C1487   1.419   1_455  A
C711       C1486   1.419       .  A
C711        C712   1.399       .  A
C712        H713   1.085       .  S
C715        C774   1.463       .  S
C715        C716   1.409       .  A
C715        C720   1.402       .  A
C716        C717   1.402       .  A
C717        C718   1.399       .  A
C717        H722   1.085       .  S
C718        C719   1.419       .  A
C719        C720   1.402       .  A
C720        H721   1.085       .  S
C723       C1500   1.409       .  A
C723        C728   1.402       .  A
C724        C760   1.475       .  S
C724       C1499   1.409   1_455  A
C724        C725   1.402       .  A
C725        C726   1.399       .  A
C725        H730   1.085       .  S
C726       C1503   1.419   1_455  A
C727       C1502   1.419       .  A
C727        C728   1.402       .  A
C728        H729   1.085       .  S
C731        C756   1.475       .  S
C731        C732   1.409       .  A
C731        C736   1.402       .  A
C732        C733   1.402       .  A
C733        C734   1.402       .  A
C733        H738   1.085       .  S
C734        C735   1.419       .  A
C735        C736   1.399       .  A
C736        H737   1.085       .  S
C739        C744   1.402       .  A
C740        C771   1.475       .  S
C740        C741   1.402       .  A
C741        C742   1.399       .  A
C741        H746   1.085       .  S
C743        C744   1.402       .  A
C744        H745   1.085       .  S
C747        C752   1.402       .  A
C748        C775   1.463       .  S
C748        C749   1.402       .  A
C749        C750   1.402       .  A
C749        H754   1.085       .  S
C751        C752   1.399       .  A
C752        H753   1.085       .  S
O755        C770   1.257       .  A
O755       Al763   1.884       .  S
C756        O766   1.258       .  A
C756        O757   1.264       .  A
O757       Al759   1.929       .  S
O758        C760   1.258       .  A
O758       Al759   1.877       .  S
Al759       O767   1.884       .  S
Al759       O769   1.921       .  S
Al759       O768   1.780       .  S
C760        O773   1.264       .  A
O761        C771   1.258       .  A
O761       Al763   1.877       .  S
O762        C775   1.257       .  A
O762       Al772   1.884       .  S
Al763       O776   1.921       .  S
Al763       O773   1.929       .  S
Al763       O768   1.780       .  S
O764        C771   1.264       .  A
O764       Al772   1.930       .  S
O765        C774   1.264       .  A
O765       Al772   1.921       .  S
O766       Al772   1.877       .  S
O767        C774   1.257       .  A
O768       Al772   1.780       .  S
O769        C770   1.264       .  A
C775        O776   1.264       .  A
O777        C792   1.258       .  A
O777       Al785   1.877       .  S
C778        O788   1.257       .  A
C778        O779   1.264       .  A
C778        C933   1.463       .  S
O779       Al781   1.921       .  S
O780        C782   1.257       .  A
O780       Al781   1.884       .  S
Al781       O789   1.877       .  S
Al781       O791   1.929       .  S
Al781       O790   1.780       .  S
C782        O795   1.264       .  A
C782        C926   1.463       .  S
O783        C793   1.257       .  A
O783       Al785   1.884       .  S
O784        C797   1.258       .  A
O784       Al794   1.877       .  S
Al785       O798   1.930       .  S
Al785       O795   1.921       .  S
Al785       O790   1.780       .  S
O786        C793   1.264       .  A
O786       Al794   1.921       .  S
O787        C796   1.264       .  A
O787       Al794   1.929       .  S
O788       Al794   1.884       .  S
O789        C796   1.258       .  A
O790       Al794   1.780       .  S
O791        C792   1.264       .  A
C792        C910   1.475       .  S
C793        C917   1.463       .  S
C796        C941   1.475       .  S
C797        O798   1.264       .  A
C797        C901   1.475       .  S
N799        C804   1.352       .  A
N799        C803   1.353       .  A
N799        H831   1.039       .  S
N800       C1001   1.348       .  A
N800        C808   1.347       .  A
N801        C806   1.353       .  A
N801        C805   1.352       .  A
N801        H832   1.039       .  S
N802       C1003   1.347       .  A
N802        C810   1.348       .  A
C803        C811   1.386       .  A
C803        C819   1.416       .  A
C804        C820   1.417       .  A
C804        C812   1.387       .  A
C805        C813   1.387       .  A
C805        C822   1.417       .  A
C806        C821   1.416       .  A
C806        C814   1.386       .  A
C807        N994   1.348   1_554  A
C807        C819   1.407       .  A
C807        C815   1.385       .  A
C808        C822   1.407       .  A
C808        C816   1.386       .  A
C809        N996   1.347   1_554  A
C809        C817   1.386       .  A
C809        C820   1.407       .  A
C810        C818   1.385       .  A
C810        C821   1.407       .  A
C811        C812   1.374       .  A
C811        H823   1.080       .  S
C812        H824   1.080       .  S
C813        C814   1.374       .  A
C813        H825   1.080       .  S
C814        H826   1.080       .  S
C815       C1010   1.380   1_554  A
C815        H827   1.083       .  S
C816       C1009   1.380       .  A
C816        H828   1.083       .  S
C817       C1012   1.380   1_554  A
C817        H829   1.083       .  S
C818       C1011   1.380       .  A
C818        H830   1.083       .  S
C819        C904   1.489       .  S
C820        C945   1.487       .  S
C821        C937   1.489       .  S
C822        C920   1.487       .  S
N833       C1226   1.353       .  A
N833        C837   1.352       .  A
N833        H865   1.039       .  S
N834       C1035   1.347       .  A
N834        C842   1.348   1_556  A
N835       C1228   1.352       .  A
N835        C839   1.353       .  A
N835        H866   1.039       .  S
N836        C843   1.348       .  A
N836       C1038   1.347       .  A
C837        C845   1.387       .  A
C837        C853   1.417       .  A
C838       N1221   1.353       .  A
C838        C854   1.416       .  A
C838        C846   1.386       .  A
C839        C847   1.386       .  A
C839        C856   1.416       .  A
C840       N1223   1.352       .  A
C840        C855   1.417       .  A
C840        C848   1.387       .  A
C841       N1028   1.347       .  A
C841        C853   1.407       .  A
C841        C849   1.386       .  A
C842        C856   1.407       .  A
C842        C850   1.385       .  A
C843        C851   1.385       .  A
C843        C854   1.407       .  A
C844       N1030   1.347   1_554  A
C844        C852   1.386       .  A
C844        C855   1.407       .  A
C845       C1234   1.374       .  A
C845        H857   1.080       .  S
C846       C1233   1.374   1_545  A
C846        H858   1.080       .  S
C847       C1236   1.374       .  A
C847        H859   1.080       .  S
C848       C1235   1.374   1_545  A
C848        H860   1.080       .  S
C849       C1044   1.380       .  A
C849        H861   1.083       .  S
C850       C1043   1.380   1_554  A
C850        H862   1.083       .  S
C851       C1046   1.380       .  A
C851        H863   1.083       .  S
C852       C1045   1.380   1_554  A
C852        H864   1.083       .  S
C853        C929   1.487       .  S
C854        C921   1.489       .  S
C855        C905   1.487       .  S
C856        C913   1.489       .  S
N867        C872   1.352   1_455  A
N867        H899   1.039       .  S
N868       C1069   1.348       .  A
N868        C876   1.347       .  A
N869        C874   1.353   1_455  A
N869        H900   1.039       .  S
N870       C1071   1.347       .  A
N870        C878   1.348       .  A
C871        C879   1.386       .  A
C871        C887   1.416       .  A
C872        C888   1.417       .  A
C872        C880   1.387       .  A
C873        C881   1.387       .  A
C873        C890   1.417       .  A
C874        C889   1.416       .  A
C874        C882   1.386       .  A
C875       N1062   1.348   1_554  A
C875        C887   1.407       .  A
C875        C883   1.385       .  A
C876        C890   1.407       .  A
C876        C884   1.386       .  A
C877       N1064   1.347   1_554  A
C877        C885   1.386       .  A
C877        C888   1.407       .  A
C878        C886   1.385       .  A
C878        C889   1.407       .  A
C879        H891   1.080       .  S
C880        H892   1.080       .  S
C881        H893   1.080       .  S
C882        H894   1.080       .  S
C883       C1078   1.380   1_554  A
C883        H895   1.083       .  S
C884       C1077   1.380       .  A
C884        H896   1.083       .  S
C885       C1080   1.380   1_554  A
C885        H897   1.083       .  S
C886       C1079   1.380       .  A
C886        H898   1.083       .  S
C887        C944   1.489       .  S
C888        C912   1.487       .  S
C889        C928   1.489       .  S
C890        C936   1.487       .  S
C901        C906   1.402       .  A
C902        C964   1.463       .  S
C902        C903   1.402       .  A
C903        C904   1.402       .  A
C903        H908   1.085       .  S
C905        C906   1.399       .  A
C906        H907   1.085       .  S
C909        C968   1.463       .  S
C909        C910   1.409       .  A
C909        C914   1.402       .  A
C910        C911   1.402       .  A
C911        C912   1.399       .  A
C911        H916   1.085       .  S
C912        C913   1.419       .  A
C913        C914   1.402       .  A
C914        H915   1.085       .  S
C917        C922   1.402       .  A
C918        C954   1.475       .  S
C918        C919   1.402       .  A
C919        C920   1.399       .  A
C919        H924   1.085       .  S
C921        C922   1.402       .  A
C922        H923   1.085       .  S
C925        C950   1.475       .  S
C925        C926   1.409       .  A
C925        C930   1.402       .  A
C926        C927   1.402       .  A
C927        C928   1.402       .  A
C927        H932   1.085       .  S
C928        C929   1.419       .  A
C929        C930   1.399       .  A
C930        H931   1.085       .  S
C933       C1322   1.409   1_545  A
C933        C938   1.402       .  A
C934        C965   1.475       .  S
C934       C1321   1.409       .  A
C934        C935   1.402       .  A
C935        C936   1.399       .  A
C935        H940   1.085       .  S
C936       C1325   1.419       .  A
C937       C1324   1.419   1_545  A
C937        C938   1.402       .  A
C938        H939   1.085       .  S
C941       C1330   1.409   1_545  A
C941        C946   1.402       .  A
C942        C969   1.463       .  S
C942       C1329   1.409       .  A
C942        C943   1.402       .  A
C943        C944   1.402       .  A
C943        H948   1.085       .  S
C944       C1333   1.419       .  A
C945       C1332   1.419   1_545  A
C945        C946   1.399       .  A
C946        H947   1.085       .  S
O949        C964   1.257       .  A
O949       Al957   1.884       .  S
C950        O960   1.258       .  A
C950        O951   1.264       .  A
O951       Al953   1.929       .  S
O952        C954   1.258       .  A
O952       Al953   1.877       .  S
Al953       O961   1.884       .  S
Al953       O963   1.921       .  S
Al953       O962   1.780       .  S
C954        O967   1.264       .  A
O955        C965   1.258       .  A
O955       Al957   1.877       .  S
O956        C969   1.257       .  A
O956       Al966   1.884       .  S
Al957       O970   1.921       .  S
Al957       O967   1.929       .  S
Al957       O962   1.780       .  S
O958        C965   1.264       .  A
O958       Al966   1.930       .  S
O959        C968   1.264       .  A
O959       Al966   1.921       .  S
O960       Al966   1.877       .  S
O961        C968   1.257       .  A
O962       Al966   1.780       .  S
O963        C964   1.264       .  A
C969        O970   1.264       .  A
O971        C986   1.258       .  A
O971       Al979   1.877       .  S
C972        O982   1.257       .  A
C972        O973   1.264       .  A
C972       C1127   1.463       .  S
O973       Al975   1.921       .  S
O974        C976   1.257       .  A
O974       Al975   1.884       .  S
Al975       O983   1.877       .  S
Al975       O985   1.929       .  S
Al975       O984   1.780       .  S
C976        O989   1.264       .  A
C976       C1120   1.463       .  S
O977        C987   1.257       .  A
O977       Al979   1.884       .  S
O978        C991   1.258       .  A
O978       Al988   1.877       .  S
Al979       O992   1.930       .  S
Al979       O989   1.921       .  S
Al979       O984   1.780       .  S
O980        C987   1.264       .  A
O980       Al988   1.921       .  S
O981        C990   1.264       .  A
O981       Al988   1.929       .  S
O982       Al988   1.884       .  S
O983        C990   1.258       .  A
O984       Al988   1.780       .  S
O985        C986   1.264       .  A
C986       C1104   1.475       .  S
C987       C1111   1.463       .  S
C990       C1135   1.475       .  S
C991        O992   1.264       .  A
C991       C1095   1.475       .  S
N993        C998   1.352       .  A
N993        C997   1.353       .  A
N993       H1025   1.039       .  S
N994       C1002   1.347       .  A
N995       C1000   1.353       .  A
N995        C999   1.352       .  A
N995       H1026   1.039       .  S
N996       C1004   1.348       .  A
C997       C1005   1.386       .  A
C997       C1013   1.416       .  A
C998       C1014   1.417       .  A
C998       C1006   1.387       .  A
C999       C1007   1.387       .  A
C999       C1016   1.417       .  A
C1000      C1015   1.416       .  A
C1000      C1008   1.386       .  A
C1001      C1013   1.407       .  A
C1001      C1009   1.385       .  A
C1002      C1016   1.407       .  A
C1002      C1010   1.386       .  A
C1003      C1011   1.386       .  A
C1003      C1014   1.407       .  A
C1004      C1012   1.385       .  A
C1004      C1015   1.407       .  A
C1005      C1006   1.374       .  A
C1005      H1017   1.080       .  S
C1006      H1018   1.080       .  S
C1007      C1008   1.374       .  A
C1007      H1019   1.080       .  S
C1008      H1020   1.080       .  S
C1009      H1021   1.083       .  S
C1010      H1022   1.083       .  S
C1011      H1023   1.083       .  S
C1012      H1024   1.083       .  S
C1013      C1098   1.489       .  S
C1014      C1139   1.487       .  S
C1015      C1131   1.489       .  S
C1016      C1114   1.487       .  S
N1027      C1420   1.353       .  A
N1027      C1031   1.352       .  A
N1027      H1059   1.039       .  S
N1028      C1036   1.348       .  A
N1029      C1422   1.352       .  A
N1029      C1033   1.353       .  A
N1029      H1060   1.039       .  S
N1030      C1037   1.348       .  A
C1031      C1039   1.387       .  A
C1031      C1047   1.417       .  A
C1032      N1415   1.353       .  A
C1032      C1048   1.416       .  A
C1032      C1040   1.386       .  A
C1033      C1041   1.386       .  A
C1033      C1050   1.416       .  A
C1034      N1417   1.352       .  A
C1034      C1049   1.417       .  A
C1034      C1042   1.387       .  A
C1035      C1047   1.407       .  A
C1035      C1043   1.386       .  A
C1036      C1050   1.407       .  A
C1036      C1044   1.385       .  A
C1037      C1045   1.385       .  A
C1037      C1048   1.407       .  A
C1038      C1046   1.386       .  A
C1038      C1049   1.407       .  A
C1039      C1428   1.374       .  A
C1039      H1051   1.080       .  S
C1040      C1427   1.374   1_545  A
C1040      H1052   1.080       .  S
C1041      C1430   1.374       .  A
C1041      H1053   1.080       .  S
C1042      C1429   1.374   1_545  A
C1042      H1054   1.080       .  S
C1043      H1055   1.083       .  S
C1044      H1056   1.083       .  S
C1045      H1057   1.083       .  S
C1046      H1058   1.083       .  S
C1047      C1123   1.487       .  S
C1048      C1115   1.489       .  S
C1049      C1099   1.487       .  S
C1050      C1107   1.489       .  S
N1061      C1066   1.352   1_455  A
N1061      H1093   1.039       .  S
N1062      C1070   1.347       .  A
N1063      C1068   1.353   1_455  A
N1063      H1094   1.039       .  S
N1064      C1072   1.348       .  A
C1065      C1073   1.386       .  A
C1065      C1081   1.416       .  A
C1066      C1082   1.417       .  A
C1066      C1074   1.387       .  A
C1067      C1075   1.387       .  A
C1067      C1084   1.417       .  A
C1068      C1083   1.416       .  A
C1068      C1076   1.386       .  A
C1069      C1081   1.407       .  A
C1069      C1077   1.385       .  A
C1070      C1084   1.407       .  A
C1070      C1078   1.386       .  A
C1071      C1079   1.386       .  A
C1071      C1082   1.407       .  A
C1072      C1080   1.385       .  A
C1072      C1083   1.407       .  A
C1073      H1085   1.080       .  S
C1074      H1086   1.080       .  S
C1075      H1087   1.080       .  S
C1076      H1088   1.080       .  S
C1077      H1089   1.083       .  S
C1078      H1090   1.083       .  S
C1079      H1091   1.083       .  S
C1080      H1092   1.083       .  S
C1081      C1138   1.489       .  S
C1082      C1106   1.487       .  S
C1083      C1122   1.489       .  S
C1084      C1130   1.487       .  S
C1095      C1100   1.402       .  A
C1096      C1158   1.463       .  S
C1096      C1097   1.402       .  A
C1097      C1098   1.402       .  A
C1097      H1102   1.085       .  S
C1099      C1100   1.399       .  A
C1100      H1101   1.085       .  S
C1103      C1162   1.463       .  S
C1103      C1104   1.409       .  A
C1103      C1108   1.402       .  A
C1104      C1105   1.402       .  A
C1105      C1106   1.399       .  A
C1105      H1110   1.085       .  S
C1106      C1107   1.419       .  A
C1107      C1108   1.402       .  A
C1108      H1109   1.085       .  S
C1111      C1116   1.402       .  A
C1112      C1148   1.475       .  S
C1112      C1113   1.402       .  A
C1113      C1114   1.399       .  A
C1113      H1118   1.085       .  S
C1115      C1116   1.402       .  A
C1116      H1117   1.085       .  S
C1119      C1144   1.475       .  S
C1119      C1120   1.409       .  A
C1119      C1124   1.402       .  A
C1120      C1121   1.402       .  A
C1121      C1122   1.402       .  A
C1121      H1126   1.085       .  S
C1122      C1123   1.419       .  A
C1123      C1124   1.399       .  A
C1124      H1125   1.085       .  S
C1127      C1516   1.409   1_545  A
C1127      C1132   1.402       .  A
C1128      C1159   1.475       .  S
C1128      C1515   1.409       .  A
C1128      C1129   1.402       .  A
C1129      C1130   1.399       .  A
C1129      H1134   1.085       .  S
C1130      C1519   1.419       .  A
C1131      C1518   1.419   1_545  A
C1131      C1132   1.402       .  A
C1132      H1133   1.085       .  S
C1135      C1524   1.409   1_545  A
C1135      C1140   1.402       .  A
C1136      C1163   1.463       .  S
C1136      C1523   1.409       .  A
C1136      C1137   1.402       .  A
C1137      C1138   1.402       .  A
C1137      H1142   1.085       .  S
C1138      C1527   1.419       .  A
C1139      C1526   1.419   1_545  A
C1139      C1140   1.399       .  A
C1140      H1141   1.085       .  S
O1143      C1158   1.257       .  A
O1143     Al1151   1.884       .  S
C1144      O1154   1.258       .  A
C1144      O1145   1.264       .  A
O1145     Al1147   1.929       .  S
O1146      C1148   1.258       .  A
O1146     Al1147   1.877       .  S
Al1147     O1155   1.884       .  S
Al1147     O1157   1.921       .  S
Al1147     O1156   1.780       .  S
C1148      O1161   1.264       .  A
O1149      C1159   1.258       .  A
O1149     Al1151   1.877       .  S
O1150      C1163   1.257       .  A
O1150     Al1160   1.884       .  S
Al1151     O1164   1.921       .  S
Al1151     O1161   1.929       .  S
Al1151     O1156   1.780       .  S
O1152      C1159   1.264       .  A
O1152     Al1160   1.930       .  S
O1153      C1162   1.264       .  A
O1153     Al1160   1.921       .  S
O1154     Al1160   1.877       .  S
O1155      C1162   1.257       .  A
O1156     Al1160   1.780       .  S
O1157      C1158   1.264       .  A
C1163      O1164   1.264       .  A
O1165      C1180   1.258       .  A
O1165     Al1173   1.877       .  S
C1166      O1176   1.257       .  A
C1166      O1167   1.264       .  A
C1166      C1321   1.463       .  S
O1167     Al1169   1.921       .  S
O1168      C1170   1.257       .  A
O1168     Al1169   1.884       .  S
Al1169     O1177   1.877       .  S
Al1169     O1179   1.929       .  S
Al1169     O1178   1.780       .  S
C1170      O1183   1.264       .  A
C1170      C1314   1.463       .  S
O1171      C1181   1.257       .  A
O1171     Al1173   1.884       .  S
O1172      C1185   1.258       .  A
O1172     Al1182   1.877       .  S
Al1173     O1186   1.930       .  S
Al1173     O1183   1.921       .  S
Al1173     O1178   1.780       .  S
O1174      C1181   1.264       .  A
O1174     Al1182   1.921       .  S
O1175      C1184   1.264       .  A
O1175     Al1182   1.929       .  S
O1176     Al1182   1.884       .  S
O1177      C1184   1.258       .  A
O1178     Al1182   1.780       .  S
O1179      C1180   1.264       .  A
C1180      C1298   1.475       .  S
C1181      C1305   1.463       .  S
C1184      C1329   1.475       .  S
C1185      O1186   1.264       .  A
C1185      C1289   1.475       .  S
N1187      C1192   1.352       .  A
N1187      C1191   1.353       .  A
N1187      H1219   1.039       .  S
N1188      C1389   1.348       .  A
N1188      C1196   1.347       .  A
N1189      C1194   1.353       .  A
N1189      C1193   1.352       .  A
N1189      H1220   1.039       .  S
N1190      C1391   1.347       .  A
N1190      C1198   1.348       .  A
C1191      C1199   1.386       .  A
C1191      C1207   1.416       .  A
C1192      C1208   1.417       .  A
C1192      C1200   1.387       .  A
C1193      C1201   1.387       .  A
C1193      C1210   1.417       .  A
C1194      C1209   1.416       .  A
C1194      C1202   1.386       .  A
C1195      N1382   1.348   1_554  A
C1195      C1207   1.407       .  A
C1195      C1203   1.385       .  A
C1196      C1210   1.407       .  A
C1196      C1204   1.386       .  A
C1197      N1384   1.347   1_554  A
C1197      C1205   1.386       .  A
C1197      C1208   1.407       .  A
C1198      C1206   1.385       .  A
C1198      C1209   1.407       .  A
C1199      C1200   1.374       .  A
C1199      H1211   1.080       .  S
C1200      H1212   1.080       .  S
C1201      C1202   1.374       .  A
C1201      H1213   1.080       .  S
C1202      H1214   1.080       .  S
C1203      C1398   1.380   1_554  A
C1203      H1215   1.083       .  S
C1204      C1397   1.380       .  A
C1204      H1216   1.083       .  S
C1205      C1400   1.380   1_554  A
C1205      H1217   1.083       .  S
C1206      C1399   1.380       .  A
C1206      H1218   1.083       .  S
C1207      C1292   1.489       .  S
C1208      C1333   1.487       .  S
C1209      C1325   1.489       .  S
C1210      C1308   1.487       .  S
N1221      C1225   1.352   1_545  A
N1221      H1253   1.039       .  S
N1222      C1423   1.347       .  A
N1222      C1230   1.348   1_556  A
N1223      C1227   1.353   1_545  A
N1223      H1254   1.039       .  S
N1224      C1231   1.348       .  A
N1224      C1426   1.347       .  A
C1225      C1233   1.387       .  A
C1225      C1241   1.417       .  A
C1226      C1242   1.416       .  A
C1226      C1234   1.386       .  A
C1227      C1235   1.386       .  A
C1227      C1244   1.416       .  A
C1228      C1243   1.417       .  A
C1228      C1236   1.387       .  A
C1229      N1416   1.347       .  A
C1229      C1241   1.407       .  A
C1229      C1237   1.386       .  A
C1230      C1244   1.407       .  A
C1230      C1238   1.385       .  A
C1231      C1239   1.385       .  A
C1231      C1242   1.407       .  A
C1232      N1418   1.347   1_554  A
C1232      C1240   1.386       .  A
C1232      C1243   1.407       .  A
C1233      H1245   1.080       .  S
C1234      H1246   1.080       .  S
C1235      H1247   1.080       .  S
C1236      H1248   1.080       .  S
C1237      C1432   1.380       .  A
C1237      H1249   1.083       .  S
C1238      C1431   1.380   1_554  A
C1238      H1250   1.083       .  S
C1239      C1434   1.380       .  A
C1239      H1251   1.083       .  S
C1240      C1433   1.380   1_554  A
C1240      H1252   1.083       .  S
C1241      C1317   1.487       .  S
C1242      C1309   1.489       .  S
C1243      C1293   1.487       .  S
C1244      C1301   1.489       .  S
N1255      C1260   1.352   1_455  A
N1255      H1287   1.039       .  S
N1256      C1457   1.348       .  A
N1256      C1264   1.347       .  A
N1257      C1262   1.353   1_455  A
N1257      H1288   1.039       .  S
N1258      C1459   1.347       .  A
N1258      C1266   1.348       .  A
C1259      C1267   1.386       .  A
C1259      C1275   1.416       .  A
C1260      C1276   1.417       .  A
C1260      C1268   1.387       .  A
C1261      C1269   1.387       .  A
C1261      C1278   1.417       .  A
C1262      C1277   1.416       .  A
C1262      C1270   1.386       .  A
C1263      N1450   1.348   1_554  A
C1263      C1275   1.407       .  A
C1263      C1271   1.385       .  A
C1264      C1278   1.407       .  A
C1264      C1272   1.386       .  A
C1265      N1452   1.347   1_554  A
C1265      C1273   1.386       .  A
C1265      C1276   1.407       .  A
C1266      C1274   1.385       .  A
C1266      C1277   1.407       .  A
C1267      H1279   1.080       .  S
C1268      H1280   1.080       .  S
C1269      H1281   1.080       .  S
C1270      H1282   1.080       .  S
C1271      C1466   1.380   1_554  A
C1271      H1283   1.083       .  S
C1272      C1465   1.380       .  A
C1272      H1284   1.083       .  S
C1273      C1468   1.380   1_554  A
C1273      H1285   1.083       .  S
C1274      C1467   1.380       .  A
C1274      H1286   1.083       .  S
C1275      C1332   1.489       .  S
C1276      C1300   1.487       .  S
C1277      C1316   1.489       .  S
C1278      C1324   1.487       .  S
C1289      C1294   1.402       .  A
C1290      C1352   1.463       .  S
C1290      C1291   1.402       .  A
C1291      C1292   1.402       .  A
C1291      H1296   1.085       .  S
C1293      C1294   1.399       .  A
C1294      H1295   1.085       .  S
C1297      C1356   1.463       .  S
C1297      C1298   1.409       .  A
C1297      C1302   1.402       .  A
C1298      C1299   1.402       .  A
C1299      C1300   1.399       .  A
C1299      H1304   1.085       .  S
C1300      C1301   1.419       .  A
C1301      C1302   1.402       .  A
C1302      H1303   1.085       .  S
C1305      C1310   1.402       .  A
C1306      C1342   1.475       .  S
C1306      C1307   1.402       .  A
C1307      C1308   1.399       .  A
C1307      H1312   1.085       .  S
C1309      C1310   1.402       .  A
C1310      H1311   1.085       .  S
C1313      C1338   1.475       .  S
C1313      C1314   1.409       .  A
C1313      C1318   1.402       .  A
C1314      C1315   1.402       .  A
C1315      C1316   1.402       .  A
C1315      H1320   1.085       .  S
C1316      C1317   1.419       .  A
C1317      C1318   1.399       .  A
C1318      H1319   1.085       .  S
C1321      C1326   1.402       .  A
C1322      C1353   1.475       .  S
C1322      C1323   1.402       .  A
C1323      C1324   1.399       .  A
C1323      H1328   1.085       .  S
C1325      C1326   1.402       .  A
C1326      H1327   1.085       .  S
C1329      C1334   1.402       .  A
C1330      C1357   1.463       .  S
C1330      C1331   1.402       .  A
C1331      C1332   1.402       .  A
C1331      H1336   1.085       .  S
C1333      C1334   1.399       .  A
C1334      H1335   1.085       .  S
O1337      C1352   1.257       .  A
O1337     Al1345   1.884       .  S
C1338      O1348   1.258       .  A
C1338      O1339   1.264       .  A
O1339     Al1341   1.929       .  S
O1340      C1342   1.258       .  A
O1340     Al1341   1.877       .  S
Al1341     O1349   1.884       .  S
Al1341     O1351   1.921       .  S
Al1341     O1350   1.780       .  S
C1342      O1355   1.264       .  A
O1343      C1353   1.258       .  A
O1343     Al1345   1.877       .  S
O1344      C1357   1.257       .  A
O1344     Al1354   1.884       .  S
Al1345     O1358   1.921       .  S
Al1345     O1355   1.929       .  S
Al1345     O1350   1.780       .  S
O1346      C1353   1.264       .  A
O1346     Al1354   1.930       .  S
O1347      C1356   1.264       .  A
O1347     Al1354   1.921       .  S
O1348     Al1354   1.877       .  S
O1349      C1356   1.257       .  A
O1350     Al1354   1.780       .  S
O1351      C1352   1.264       .  A
C1357      O1358   1.264       .  A
O1359      C1374   1.258       .  A
O1359     Al1367   1.877       .  S
C1360      O1370   1.257       .  A
C1360      O1361   1.264       .  A
C1360      C1515   1.463       .  S
O1361     Al1363   1.921       .  S
O1362      C1364   1.257       .  A
O1362     Al1363   1.884       .  S
Al1363     O1371   1.877       .  S
Al1363     O1373   1.929       .  S
Al1363     O1372   1.780       .  S
C1364      O1377   1.264       .  A
C1364      C1508   1.463       .  S
O1365      C1375   1.257       .  A
O1365     Al1367   1.884       .  S
O1366      C1379   1.258       .  A
O1366     Al1376   1.877       .  S
Al1367     O1380   1.930       .  S
Al1367     O1377   1.921       .  S
Al1367     O1372   1.780       .  S
O1368      C1375   1.264       .  A
O1368     Al1376   1.921       .  S
O1369      C1378   1.264       .  A
O1369     Al1376   1.929       .  S
O1370     Al1376   1.884       .  S
O1371      C1378   1.258       .  A
O1372     Al1376   1.780       .  S
O1373      C1374   1.264       .  A
C1374      C1492   1.475       .  S
C1375      C1499   1.463       .  S
C1378      C1523   1.475       .  S
C1379      O1380   1.264       .  A
C1379      C1483   1.475       .  S
N1381      C1386   1.352       .  A
N1381      C1385   1.353       .  A
N1381      H1413   1.039       .  S
N1382      C1390   1.347       .  A
N1383      C1388   1.353       .  A
N1383      C1387   1.352       .  A
N1383      H1414   1.039       .  S
N1384      C1392   1.348       .  A
C1385      C1393   1.386       .  A
C1385      C1401   1.416       .  A
C1386      C1402   1.417       .  A
C1386      C1394   1.387       .  A
C1387      C1395   1.387       .  A
C1387      C1404   1.417       .  A
C1388      C1403   1.416       .  A
C1388      C1396   1.386       .  A
C1389      C1401   1.407       .  A
C1389      C1397   1.385       .  A
C1390      C1404   1.407       .  A
C1390      C1398   1.386       .  A
C1391      C1399   1.386       .  A
C1391      C1402   1.407       .  A
C1392      C1400   1.385       .  A
C1392      C1403   1.407       .  A
C1393      C1394   1.374       .  A
C1393      H1405   1.080       .  S
C1394      H1406   1.080       .  S
C1395      C1396   1.374       .  A
C1395      H1407   1.080       .  S
C1396      H1408   1.080       .  S
C1397      H1409   1.083       .  S
C1398      H1410   1.083       .  S
C1399      H1411   1.083       .  S
C1400      H1412   1.083       .  S
C1401      C1486   1.489       .  S
C1402      C1527   1.487       .  S
C1403      C1519   1.489       .  S
C1404      C1502   1.487       .  S
N1415      C1419   1.352   1_545  A
N1415      H1447   1.039       .  S
N1416      C1424   1.348       .  A
N1417      C1421   1.353   1_545  A
N1417      H1448   1.039       .  S
N1418      C1425   1.348       .  A
C1419      C1427   1.387       .  A
C1419      C1435   1.417       .  A
C1420      C1436   1.416       .  A
C1420      C1428   1.386       .  A
C1421      C1429   1.386       .  A
C1421      C1438   1.416       .  A
C1422      C1437   1.417       .  A
C1422      C1430   1.387       .  A
C1423      C1435   1.407       .  A
C1423      C1431   1.386       .  A
C1424      C1438   1.407       .  A
C1424      C1432   1.385       .  A
C1425      C1433   1.385       .  A
C1425      C1436   1.407       .  A
C1426      C1434   1.386       .  A
C1426      C1437   1.407       .  A
C1427      H1439   1.080       .  S
C1428      H1440   1.080       .  S
C1429      H1441   1.080       .  S
C1430      H1442   1.080       .  S
C1431      H1443   1.083       .  S
C1432      H1444   1.083       .  S
C1433      H1445   1.083       .  S
C1434      H1446   1.083       .  S
C1435      C1511   1.487       .  S
C1436      C1503   1.489       .  S
C1437      C1487   1.487       .  S
C1438      C1495   1.489       .  S
N1449      C1454   1.352   1_455  A
N1449      H1481   1.039       .  S
N1450      C1458   1.347       .  A
N1451      C1456   1.353   1_455  A
N1451      H1482   1.039       .  S
N1452      C1460   1.348       .  A
C1453      C1461   1.386       .  A
C1453      C1469   1.416       .  A
C1454      C1470   1.417       .  A
C1454      C1462   1.387       .  A
C1455      C1463   1.387       .  A
C1455      C1472   1.417       .  A
C1456      C1471   1.416       .  A
C1456      C1464   1.386       .  A
C1457      C1469   1.407       .  A
C1457      C1465   1.385       .  A
C1458      C1472   1.407       .  A
C1458      C1466   1.386       .  A
C1459      C1467   1.386       .  A
C1459      C1470   1.407       .  A
C1460      C1468   1.385       .  A
C1460      C1471   1.407       .  A
C1461      H1473   1.080       .  S
C1462      H1474   1.080       .  S
C1463      H1475   1.080       .  S
C1464      H1476   1.080       .  S
C1465      H1477   1.083       .  S
C1466      H1478   1.083       .  S
C1467      H1479   1.083       .  S
C1468      H1480   1.083       .  S
C1469      C1526   1.489       .  S
C1470      C1494   1.487       .  S
C1471      C1510   1.489       .  S
C1472      C1518   1.487       .  S
C1483      C1488   1.402       .  A
C1484      C1546   1.463       .  S
C1484      C1485   1.402       .  A
C1485      C1486   1.402       .  A
C1485      H1490   1.085       .  S
C1487      C1488   1.399       .  A
C1488      H1489   1.085       .  S
C1491      C1550   1.463       .  S
C1491      C1492   1.409       .  A
C1491      C1496   1.402       .  A
C1492      C1493   1.402       .  A
C1493      C1494   1.399       .  A
C1493      H1498   1.085       .  S
C1494      C1495   1.419       .  A
C1495      C1496   1.402       .  A
C1496      H1497   1.085       .  S
C1499      C1504   1.402       .  A
C1500      C1536   1.475       .  S
C1500      C1501   1.402       .  A
C1501      C1502   1.399       .  A
C1501      H1506   1.085       .  S
C1503      C1504   1.402       .  A
C1504      H1505   1.085       .  S
C1507      C1532   1.475       .  S
C1507      C1508   1.409       .  A
C1507      C1512   1.402       .  A
C1508      C1509   1.402       .  A
C1509      C1510   1.402       .  A
C1509      H1514   1.085       .  S
C1510      C1511   1.419       .  A
C1511      C1512   1.399       .  A
C1512      H1513   1.085       .  S
C1515      C1520   1.402       .  A
C1516      C1547   1.475       .  S
C1516      C1517   1.402       .  A
C1517      C1518   1.399       .  A
C1517      H1522   1.085       .  S
C1519      C1520   1.402       .  A
C1520      H1521   1.085       .  S
C1523      C1528   1.402       .  A
C1524      C1551   1.463       .  S
C1524      C1525   1.402       .  A
C1525      C1526   1.402       .  A
C1525      H1530   1.085       .  S
C1527      C1528   1.399       .  A
C1528      H1529   1.085       .  S
O1531      C1546   1.257       .  A
O1531     Al1539   1.884       .  S
C1532      O1542   1.258       .  A
C1532      O1533   1.264       .  A
O1533     Al1535   1.929       .  S
O1534      C1536   1.258       .  A
O1534     Al1535   1.877       .  S
Al1535     O1543   1.884       .  S
Al1535     O1545   1.921       .  S
Al1535     O1544   1.780       .  S
C1536      O1549   1.264       .  A
O1537      C1547   1.258       .  A
O1537     Al1539   1.877       .  S
O1538      C1551   1.257       .  A
O1538     Al1548   1.884       .  S
Al1539     O1552   1.921       .  S
Al1539     O1549   1.929       .  S
Al1539     O1544   1.780       .  S
O1540      C1547   1.264       .  A
O1540     Al1548   1.930       .  S
O1541      C1550   1.264       .  A
O1541     Al1548   1.921       .  S
O1542     Al1548   1.877       .  S
O1543      C1550   1.257       .  A
O1544     Al1548   1.780       .  S
O1545      C1546   1.264       .  A
C1551      O1552   1.264       .  A
