geometry optimzed in LAMMPS
_audit_creation_date              2020-11-30 
_audit_creation_method            'lammps2cif' 
_symmetry_space_group_name_H-M    'P1' 
_symmetry_Int_Tables_number       1 
_symmetry_cell_setting            triclinic 
loop_ 
_symmetry_equiv_pos_as_xyz 
  x,y,z 
_cell_length_a                    41.37600455 
_cell_length_b                    41.558796349001184 
_cell_length_c                    50.72779102802213 
_cell_angle_alpha                 91.54682265070994 
_cell_angle_beta                  88.27527831452291 
_cell_angle_gamma                 115.67149222507325 
loop_ 
_atom_site_label 
_atom_site_type_symbol 
_atom_site_fract_x 
_atom_site_fract_y 
_atom_site_fract_z 
_atom_site_charge 
O1          O  0.35693241  0.10653783  0.02373990    -0.80200
O2          O  0.35747463  0.24248624  0.97421917    -0.64900
O3          O  0.34552610  0.16819725  0.02206435    -1.11500
C4          C  0.25111103  0.09865762  0.96406536     1.06700
O5          O  0.29905345  0.22647787  0.97747708    -0.78100
O6          O  0.24792881  0.16691507  0.99853012    -0.65700
Ni7        Ni  0.38383523  0.15691525  0.03091674     1.34900
C8          C  0.25025214  0.15483607  0.02070215     0.85400
O9          O  0.39294290  0.24071299  0.01841795    -0.78600
O10         O  0.41365071  0.20607312  0.03917993    -0.88900
C11         C  0.33021386  0.24815461  0.96976471     0.85000
O12         O  0.40623663  0.16207616  0.99702680    -0.67100
O13         O  0.25298218  0.12790953  0.95522073    -0.86400
C14         C  0.40753382  0.18073534  0.97736545     0.85800
C15         C  0.41511018  0.23633385  0.03337567     1.07400
H16         H  0.32633738  0.16289562  0.96338121     0.39200
O17         O  0.31599848  0.16898919  0.97904453    -1.09000
O18         O  0.27291967  0.14270188  0.02534026    -0.65700
Ni19       Ni  0.30646450  0.13213349  0.00358705     1.26300
O20         O  0.38906195  0.19840185  0.97567532    -0.65900
O21         O  0.26838447  0.09655931  0.98376826    -0.78200
C22         C  0.32531556  0.08769168  0.03226569     0.85200
O23         O  0.30022475  0.09655331  0.02855806    -0.65400
Ni24       Ni  0.27695600  0.17694472  0.96698231     1.27400
Ni25       Ni  0.35408698  0.20585656  0.99817717     1.26100
H26         H  0.33656375  0.17393426  0.03842850     0.39800
O27         O  0.27060203  0.19872480  0.47816505    -0.80200
O28         O  0.40118745  0.19766880  0.53053715    -0.64900
O29         O  0.32806656  0.18136960  0.48124830    -1.11500
C30         C  0.25925899  0.08316573  0.53526369     1.06700
O31         O  0.39074467  0.14070016  0.52956282    -0.78100
O32         O  0.33775957  0.09550803  0.49886729    -0.65700
Ni33       Ni  0.32063681  0.22034647  0.46834490     1.34900
C34         C  0.31759368  0.09300657  0.47989498     0.85400
O35         O  0.40129176  0.22778999  0.48495561    -0.78600
O36         O  0.37012276  0.24406244  0.45687601    -0.88900
C37         C  0.41028352  0.17313998  0.53552941     0.85000
O38         O  0.32966073  0.24880920  0.49989764    -0.67100
O39         O  0.28942927  0.08321586  0.53959182    -0.86400
C40         C  0.34193617  0.24674565  0.52203564     0.85800
C41         C  0.39935830  0.24510049  0.46521326     1.07400
H42         H  0.32350157  0.16219098  0.54135617     0.39200
O43         O  0.32879659  0.15289208  0.52500977    -1.09000
O44         O  0.29741693  0.10893680  0.47933320    -0.65700
Ni45       Ni  0.29077240  0.14452817  0.50117230     1.26300
O46         O  0.35510859  0.22499034  0.52670209    -0.65900
O47         O  0.25533893  0.10696769  0.52203201    -0.78200
C48         C  0.24911465  0.16751364  0.47081407     0.85200
O49         O  0.25417514  0.14054914  0.47692271    -0.65400
Ni50       Ni  0.33935832  0.11398227  0.53369048     1.27400
Ni51       Ni  0.36523441  0.19088321  0.50564936     1.26100
H52         H  0.33379776  0.17047663  0.46578608     0.39800
O53         O  0.38938497  0.04484748  0.72249868    -0.73700
O54         O  0.35843563  0.47380956  0.77645161    -0.73800
O55         O  0.38882864  0.04602077  0.77664574    -0.73800
O56         O  0.35964831  0.47265766  0.72230634    -0.73900
O57         O  0.41446437  0.47489445  0.72171586    -0.73800
O58         O  0.44274359  0.04601856  0.77599637    -0.73800
O59         O  0.41274563  0.47481772  0.77572114    -0.73700
O60         O  0.44416848  0.04684611  0.72260313    -0.73800
Ni61       Ni  0.37207579  0.00927745  0.74944279     1.25400
Ni62       Ni  0.43036947  0.01061546  0.74892043     1.25400
C63         C  0.42176264  0.05733657  0.71364187     0.88500
C64         C  0.38092257  0.46361848  0.78571531     0.88400
C65         C  0.42040987  0.05687550  0.78595972     0.88400
C66         C  0.38278035  0.46248969  0.71257035     0.88600
O67         O  0.09727075  0.06151458  0.72678678    -0.73700
O68         O  0.06607892  0.11002272  0.77875983    -0.73800
O69         O  0.06311113  0.10265315  0.72575409    -0.73800
O70         O  0.10109641  0.06851048  0.77990524    -0.73900
O71         O  0.15384893  0.11639048  0.77583394    -0.73800
O72         O  0.11502314  0.15155954  0.72232872    -0.73800
O73         O  0.11877306  0.15814957  0.77588124    -0.73700
O74         O  0.14955647  0.10969906  0.72238024    -0.73800
Ni75       Ni  0.08008126  0.08401136  0.75306282     1.25400
Ni76       Ni  0.13625982  0.13576624  0.74903356     1.25400
C77         C  0.12769515  0.07806470  0.71512073     0.88500
C78         C  0.08720329  0.14175421  0.78601070     0.88400
C79         C  0.08323093  0.13195811  0.71446406     0.88400
C80         C  0.13361088  0.08679258  0.78669533     0.88600
O81         O  0.03496138  0.43080549  0.77645749    -0.73700
O82         O  0.46468804  0.38936832  0.72318406    -0.73800
O83         O  0.46333937  0.39257382  0.77626560    -0.73800
O84         O  0.03669329  0.42755957  0.72270728    -0.73900
O85         O  0.04311548  0.37694881  0.72374064    -0.73800
O86         O  0.47089467  0.34265851  0.77851335    -0.73800
O87         O  0.47108337  0.33877919  0.72447224    -0.73700
O88         O  0.04292199  0.38114366  0.77769773    -0.73800
Ni89       Ni  0.99979714  0.41187707  0.74958233     1.25400
Ni90       Ni  0.00726364  0.35803527  0.75115465     1.25400
C91         C  0.04985676  0.41270048  0.78642497     0.88500
C92         C  0.45639178  0.35743238  0.71498763     0.88400
C93         C  0.45552608  0.36220211  0.78642717     0.88400
C94         C  0.05121839  0.40762496  0.71396451     0.88600
C95         C  0.48644007  0.17982368  0.58491293     0.03000
C96         C  0.02419686  0.19431313  0.58445893     0.03000
C97         C  0.04165516  0.18842356  0.60563906    -0.17600
C98         C  0.02218831  0.16775341  0.62694153     0.03000
C99         C  0.48426375  0.15371725  0.62789959     0.03000
C100        C  0.46685165  0.15982374  0.60664962    -0.17600
H101        H  0.43779999  0.14873051  0.60697309     0.05000
H102        H  0.07068519  0.19894886  0.60515316     0.05000
C103        C  0.18550036  0.00891082  0.58178245     0.03000
C104        C  0.17247858  0.47131900  0.58194073     0.03000
C105        C  0.15191750  0.45222955  0.60366611    -0.17600
C106        C  0.14486434  0.46997719  0.62542806     0.03000
C107        C  0.15842247  0.00763550  0.62527004     0.03000
C108        C  0.17863148  0.02657084  0.60354732    -0.17600
H109        H  0.18879575  0.05542643  0.60350416     0.05000
H110        H  0.14154323  0.42337430  0.60377632     0.05000
C111        C  0.31681700  0.34517070  0.91818549     0.03000
C112        C  0.33556815  0.32367039  0.91824357     0.03000
C113        C  0.35665891  0.32336421  0.89627480    -0.17600
C114        C  0.36078317  0.34498762  0.87453528     0.03000
C115        C  0.34438262  0.36876859  0.87509468     0.03000
C116        C  0.32166285  0.36777324  0.89666634    -0.17600
H117        H  0.30841999  0.38529596  0.89699699     0.05000
H118        H  0.36990978  0.30582230  0.89599118     0.05000
C119        C  0.34140259  0.31300147  0.58311393     0.03000
C120        C  0.32538587  0.33692511  0.58302986     0.03000
C121        C  0.32971562  0.35984195  0.60481488    -0.17600
C122        C  0.34983876  0.35959434  0.62658107     0.03000
C123        C  0.36442015  0.33429959  0.62731668     0.03000
C124        C  0.36025715  0.31162156  0.60531157    -0.17600
H125        H  0.37188419  0.29272283  0.60543268     0.05000
H126        H  0.31821747  0.37884265  0.60451398     0.05000
C127        C  0.17526192  0.48251807  0.91389223     0.03000
C128        C  0.19148303  0.02008614  0.91392663     0.03000
C129        C  0.18764676  0.03796650  0.89228811    -0.17600
C130        C  0.16660384  0.01926369  0.87102569     0.03000
C131        C  0.14822619  0.48147641  0.87145228     0.03000
C132        C  0.15370571  0.46345336  0.89266841    -0.17600
H133        H  0.14006034  0.43454075  0.89314820     0.05000
H134        H  0.20083809  0.06694016  0.89210041     0.05000
C135        C  0.47486200  0.17893864  0.91735217     0.03000
C136        C  0.01270863  0.19486373  0.91805323     0.03000
C137        C  0.03243362  0.19347605  0.89558577    -0.17600
C138        C  0.01550043  0.17416547  0.87300724     0.03000
C139        C  0.47750009  0.15518374  0.87321256     0.03000
C140        C  0.45761780  0.15900179  0.89497245    -0.17600
H141        H  0.42857522  0.14501357  0.89496657     0.05000
H142        H  0.06148618  0.20733900  0.89580009     0.05000
O143        O  0.10960448  0.35907422  0.47244852    -0.80200
O144        O  0.24676315  0.36195511  0.52463302    -0.64900
O145        O  0.17267892  0.34903858  0.47590946    -1.11500
C146        C  0.10321561  0.25407763  0.53380766     1.06700
O147        O  0.23213626  0.30417405  0.52106950    -0.78100
O148        O  0.17327839  0.25256958  0.49915813    -0.65700
Ni149      Ni  0.16069200  0.38697830  0.46725169     1.34900
C150        C  0.16062916  0.25448199  0.47711095     0.85400
O151        O  0.24526925  0.39720824  0.48032747    -0.78600
O152        O  0.21026119  0.41824630  0.46051385    -0.88900
C153        C  0.25285850  0.33515348  0.52948662     0.85000
O154        O  0.16316346  0.40703062  0.50173912    -0.67100
O155        O  0.13269944  0.25589234  0.54233639    -0.86400
C156        C  0.18214743  0.40891121  0.52136647     0.85800
C157        C  0.24075716  0.41984286  0.46607702     1.07400
H158        H  0.16676130  0.32923118  0.53466729     0.39200
O159        O  0.17336403  0.31941284  0.51899947    -1.09000
O160        O  0.14780412  0.27659132  0.47261392    -0.65700
Ni161      Ni  0.13657950  0.30964311  0.49428293     1.26300
O162        O  0.20145658  0.39204347  0.52269896    -0.65900
O163        O  0.10093662  0.27147455  0.51422743    -0.78200
C164        C  0.09119844  0.32705957  0.46481974     0.85200
O165        O  0.10096847  0.30281046  0.46909844    -0.65400
Ni166      Ni  0.18211818  0.28085712  0.53094640     1.27400
Ni167      Ni  0.21027680  0.35799769  0.50019930     1.26100
H168        H  0.17891847  0.34047634  0.45953757     0.39800
O169        O  0.20031829  0.27279032  0.02394914    -0.80200
O170        O  0.19904438  0.40415770  0.97228546    -0.64900
O171        O  0.18399179  0.33111930  0.02158963    -1.11500
C172        C  0.08465856  0.26347215  0.96744587     1.06700
O173        O  0.14207443  0.39322667  0.97647419    -0.78100
O174        O  0.09380427  0.33812028  0.00395917    -0.65700
Ni175      Ni  0.22333868  0.32285913  0.03296388     1.34900
C176        C  0.09236251  0.31901855  0.02336773     0.85400
O177        O  0.23100219  0.40419040  0.01760751    -0.78600
O178        O  0.24882056  0.37218661  0.04373871    -0.88900
C179        C  0.17346809  0.41199974  0.96761097     0.85000
O180        O  0.25019543  0.33092413  0.00045442    -0.67100
O181        O  0.08568220  0.29363380  0.96205847    -0.86400
C182        C  0.24847248  0.34475099  0.97889138     0.85800
C183        C  0.24974055  0.40164153  0.03626152     1.07400
H184        H  0.16348477  0.32662380  0.96214038     0.39200
O185        O  0.15435149  0.33212021  0.97855502    -1.09000
O186        O  0.11075676  0.30127863  0.02477738    -0.65700
Ni187      Ni  0.14592605  0.29427538  0.00231769     1.26300
O188        O  0.22712854  0.35882239  0.97530511    -0.69900
O189        O  0.10730843  0.25922843  0.98194626    -0.78200
C190        C  0.16880365  0.25156659  0.03130364     0.85200
O191        O  0.14202062  0.25767740  0.02634380    -0.65400
Ni192      Ni  0.11549981  0.34282971  0.96984951     1.27400
Ni193      Ni  0.19316434  0.36843164  0.99729549     1.26100
H194        H  0.17373561  0.33686377  0.03744262     0.39800
O195        O  0.45785802  0.12788636  0.22298102    -0.73700
O196        O  0.02816390  0.15497773  0.27756277    -0.73800
O197        O  0.03021610  0.15573157  0.22344155    -0.73800
O198        O  0.45602068  0.12746124  0.27710723    -0.73900
O199        O  0.45115767  0.07182403  0.27451917    -0.73800
O200        O  0.02851863  0.10130881  0.22376714    -0.73800
O201        O  0.02282962  0.09923832  0.27742404    -0.73700
O202        O  0.45624821  0.07346313  0.22139237    -0.73800
Ni203      Ni  0.49322479  0.14356557  0.25027457     1.25400
Ni204      Ni  0.48968611  0.08459410  0.24918940     1.25400
C205        C  0.44584093  0.09616608  0.21313186     0.88500
C206        C  0.03572688  0.13092254  0.28728337     0.88400
C207        C  0.04119842  0.13295545  0.21462308     0.88400
C208        C  0.44171001  0.09501162  0.28474824     0.88600
O209        O  0.41004488  0.44179249  0.28041637    -0.73700
O210        O  0.44191643  0.40203218  0.22337230    -0.73800
O211        O  0.40982773  0.44516903  0.22713378    -0.73800
O212        O  0.44172934  0.39754534  0.27627280    -0.73900
O213        O  0.38757508  0.35116965  0.27622847    -0.73800
O214        O  0.35650254  0.39790452  0.22590010    -0.73800
O215        O  0.38897374  0.35412498  0.22254247    -0.73700
O216        O  0.35586540  0.39572898  0.27952952    -0.73800
Ni217      Ni  0.42771619  0.42328460  0.25191302     1.25400
Ni218      Ni  0.37022729  0.37297868  0.25105542     1.25400
C219        C  0.37812564  0.42540085  0.28971008     0.88500
C220        C  0.42063702  0.37232101  0.21300078     0.88400
C221        C  0.37846455  0.42862352  0.21750053     0.88400
C222        C  0.41963510  0.36681241  0.28458409     0.88600
C223        C  0.31419155  0.49426815  0.41973722     0.03000
C224        C  0.32577328  0.03153906  0.41873132     0.03000
C225        C  0.34442549  0.05026818  0.39630009    -0.17600
C226        C  0.35163386  0.03240803  0.37468403     0.03000
C227        C  0.34051882  0.49505271  0.37620197     0.03000
C228        C  0.32168958  0.47651320  0.39845690    -0.17600
H229        H  0.31310084  0.44788965  0.39928784     0.05000
H230        H  0.35308888  0.07888393  0.39556263     0.05000
O231        O  0.11292896  0.45471017  0.27760814    -0.73700
O232        O  0.14663596  0.02453558  0.22233148    -0.73800
O233        O  0.14585119  0.02680997  0.27669218    -0.73800
O234        O  0.11426246  0.45258536  0.22358944    -0.73900
O235        O  0.06007192  0.45211371  0.22496129    -0.73800
O236        O  0.09322494  0.02955430  0.27548197    -0.73800
O237        O  0.09233657  0.02349648  0.22170623    -0.73700
O238        O  0.06056036  0.45808778  0.27844715    -0.73800
Ni239      Ni  0.13191345  0.48967136  0.25007831     1.25400
Ni240      Ni  0.07472604  0.49090537  0.25015431     1.25400
C241        C  0.08139874  0.44582903  0.28761200     0.88500
C242        C  0.12417469  0.03407080  0.21208042     0.88400
C243        C  0.12445719  0.03983176  0.28517363     0.88400
C244        C  0.08212268  0.44054780  0.21535555     0.88600
C245        C  0.32434410  0.01844117  0.08544126     0.03000
C246        C  0.31160624  0.48111471  0.08653113     0.03000
C247        C  0.31954965  0.46626577  0.10845681    -0.17600
C248        C  0.34016290  0.48802173  0.12909036     0.03000
C249        C  0.35222412  0.02557082  0.12828856     0.03000
C250        C  0.34440453  0.04027894  0.10622711    -0.17600
H251        H  0.35395345  0.06900682  0.10526809     0.05000
H252        H  0.31035312  0.43757118  0.10921933     0.05000
C253        C  0.17567320  0.16260600  0.41698537     0.03000
C254        C  0.15693762  0.18413669  0.41724509     0.03000
C255        C  0.13444435  0.18124680  0.39619578    -0.17600
C256        C  0.13047377  0.15754859  0.37486246     0.03000
C257        C  0.15102115  0.13760054  0.37380661     0.03000
C258        C  0.17294364  0.14006899  0.39514845    -0.17600
H259        H  0.18817567  0.12439238  0.39468886     0.05000
H260        H  0.11907541  0.19678782  0.39676704     0.05000
C261        C  0.18123554  0.15367595  0.08107605     0.03000
C262        C  0.16153474  0.17426546  0.08186900     0.03000
C263        C  0.14015978  0.17308477  0.10414608    -0.17600
C264        C  0.13701135  0.15103676  0.12552835     0.03000
C265        C  0.15529356  0.12888481  0.12410499     0.03000
C266        C  0.17776325  0.13109685  0.10218475    -0.17600
H267        H  0.19196789  0.11443539  0.10128748     0.05000
H268        H  0.12609452  0.18987995  0.10496295     0.05000
C269        C  0.47813685  0.30095565  0.41291705     0.03000
C270        C  0.01591191  0.31812120  0.41338170     0.03000
C271        C  0.03523936  0.33954238  0.39219255    -0.17600
C272        C  0.01748305  0.34428927  0.37064023     0.03000
C273        C  0.47972249  0.32479750  0.36923543     0.03000
C274        C  0.46056445  0.30352433  0.39049102    -0.17600
H275        H  0.43153639  0.28965511  0.38987928     0.05000
H276        H  0.06418634  0.35416776  0.39312017     0.05000
C277        C  0.02494214  0.32117438  0.08295977     0.03000
C278        C  0.48724377  0.30785389  0.08159768     0.03000
C279        C  0.46796824  0.31325433  0.10295461    -0.17600
C280        C  0.48549813  0.33242789  0.12530289     0.03000
C281        C  0.02322095  0.34587347  0.12691848     0.03000
C282        C  0.04251302  0.34004924  0.10559999    -0.17600
H283        H  0.07146163  0.35059452  0.10656839     0.05000
H284        H  0.43906627  0.30335570  0.10190634     0.05000
C285        C  0.02797373  0.40066408  0.34830977    -0.12600
C286        C  0.03786961  0.37273463  0.35148648     0.09500
C287        C  0.06493234  0.37081983  0.33503940    -0.12600
C288        C  0.08028390  0.39534546  0.31462395    -0.12600
C289        C  0.06844350  0.42175687  0.31037704     0.09500
C290        C  0.04274422  0.42461965  0.32779393    -0.12600
H291        H  0.50759834  0.40296207  0.36109236     0.13500
H292        H  0.07300445  0.34951450  0.33729452     0.13500
H293        H  0.10022484  0.39276933  0.30153961     0.13500
H294        H  0.03364384  0.44516296  0.32531973     0.13500
C295        C  0.08318215  0.42602451  0.16772630    -0.12600
C296        C  0.07083579  0.41455143  0.19339872     0.09500
C297        C  0.04568305  0.37920830  0.19743552    -0.12600
C298        C  0.03219547  0.35585254  0.17587844    -0.12600
C299        C  0.04275921  0.36793679  0.14996061     0.09500
C300        C  0.06914099  0.40293645  0.14613717    -0.12600
H301        H  0.10240288  0.45338696  0.16432233     0.13500
H302        H  0.03591469  0.36998883  0.21715833     0.13500
H303        H  0.51216752  0.32885243  0.17931694     0.13500
H304        H  0.07746866  0.41296314  0.12639064     0.13500
C305        C  0.13358950  0.05363321  0.33318314    -0.12600
C306        C  0.13512632  0.06567460  0.30737609     0.09500
C307        C  0.14508097  0.10196113  0.30327009    -0.12600
C308        C  0.15269436  0.12581773  0.32477531    -0.12600
C309        C  0.14914807  0.11354103  0.35082248     0.09500
C310        C  0.14042190  0.07732791  0.35474422    -0.12600
H311        H  0.12579441  0.02561171  0.33668442     0.13500
H312        H  0.14646674  0.11170860  0.28348363     0.13500
H313        H  0.15989021  0.15367613  0.32115152     0.13500
H314        H  0.13734711  0.06708347  0.37452506     0.13500
C315        C  0.16937932  0.08047301  0.18205512    -0.12600
C316        C  0.13381194  0.05641478  0.18822453     0.09500
C317        C  0.10640839  0.05374302  0.17132658    -0.12600
C318        C  0.11395961  0.07581807  0.14957692    -0.12600
C319        C  0.14901104  0.10156403  0.14441205     0.09500
C320        C  0.17692101  0.10303467  0.16029441    -0.12600
H321        H  0.19103262  0.08279211  0.19458882     0.13500
H322        H  0.07886185  0.03482491  0.17515082     0.13500
H323        H  0.09213660  0.07389764  0.13736794     0.13500
H324        H  0.20417818  0.12271424  0.15658211     0.13500
C325        C  0.45746350  0.33850080  0.29994920    -0.12600
C326        C  0.43082834  0.35017370  0.30513631     0.09500
C327        C  0.41701715  0.34897188  0.33080705    -0.12600
C328        C  0.43155275  0.33859598  0.35156117    -0.12600
C329        C  0.45972892  0.32882257  0.34675956     0.09500
C330        C  0.47129598  0.32708548  0.32061231    -0.12600
H331        H  0.46816846  0.33917536  0.28011102     0.13500
H332        H  0.39648346  0.35809340  0.33498465     0.13500
H333        H  0.42227089  0.34027024  0.37151547     0.13500
H334        H  0.99250356  0.31892895  0.31642621     0.13500
C335        C  0.43907128  0.31476025  0.16157853    -0.12600
C336        C  0.46446928  0.34132016  0.14559713     0.09500
C337        C  0.47220994  0.37719255  0.15030922    -0.12600
C338        C  0.45702270  0.38679772  0.17202355    -0.12600
C339        C  0.43321779  0.36060212  0.18903225     0.09500
C340        C  0.42329389  0.32440437  0.18327426    -0.12600
H341        H  0.43280961  0.28690057  0.15795878     0.13500
H342        H  0.49134116  0.39785798  0.13784402     0.13500
H343        H  0.46444263  0.41487940  0.17582221     0.13500
H344        H  0.40478949  0.30390575  0.19614112     0.13500
C345        C  0.32273520  0.44689906  0.34167877    -0.12600
C346        C  0.34978039  0.47492025  0.35544384     0.09500
C347        C  0.38580820  0.48480690  0.34868220    -0.12600
C348        C  0.39475201  0.46833039  0.32739992    -0.12600
C349        C  0.36780736  0.44124663  0.31278370     0.09500
C350        C  0.33170850  0.43007938  0.32040314    -0.12600
H351        H  0.29476000  0.43892028  0.34688357     0.13500
H352        H  0.40693936  0.00600119  0.35944662     0.13500
H353        H  0.42285980  0.47705165  0.32228136     0.13500
H354        H  0.31051488  0.40909772  0.30955767     0.13500
C355        C  0.33225435  0.43116876  0.18801531    -0.12600
C356        C  0.36829162  0.44416672  0.19529315     0.09500
C357        C  0.39507310  0.47013510  0.17976022    -0.12600
C358        C  0.38600044  0.48303930  0.15747816    -0.12600
C359        C  0.34990851  0.47116984  0.15085443     0.09500
C360        C  0.32311556  0.44473154  0.16600760    -0.12600
H361        H  0.31114931  0.41075414  0.19944621     0.13500
H362        H  0.42312663  0.47999746  0.18452525     0.13500
H363        H  0.40710723  0.50294114  0.14570066     0.13500
H364        H  0.29513475  0.43519233  0.16112334     0.13500
C365        C  0.38190050  0.05496704  0.30351660    -0.12600
C366        C  0.41537910  0.08410931  0.30665157     0.09500
C367        C  0.42567636  0.09932256  0.33182111    -0.12600
C368        C  0.40399144  0.08366494  0.35393673    -0.12600
C369        C  0.37140121  0.05299461  0.35106463     0.09500
C370        C  0.35961238  0.04020822  0.32547112    -0.12600
H371        H  0.37355590  0.04293619  0.28419934     0.13500
H372        H  0.45164514  0.12166988  0.33456978     0.13500
H373        H  0.41367752  0.09421866  0.37336742     0.13500
H374        H  0.33406510  0.51737492  0.32259963     0.13500
C375        C  0.43085280  0.09440998  0.16575206    -0.12600
C376        C  0.41960403  0.08479461  0.19191412     0.09500
C377        C  0.38446706  0.05933301  0.19713428    -0.12600
C378        C  0.36133784  0.04240287  0.17640494    -0.12600
C379        C  0.37349497  0.04956870  0.15006154     0.09500
C380        C  0.40793915  0.07686337  0.14491880    -0.12600
H381        H  0.45808866  0.11369202  0.16139188     0.13500
H382        H  0.37549838  0.05135698  0.21721331     0.13500
H383        H  0.33474516  0.02185798  0.18088754     0.13500
H384        H  0.41794243  0.08288454  0.12481285     0.13500
C385        C  0.08247458  0.17404395  0.31773023    -0.12600
C386        C  0.05850465  0.13891326  0.31077379     0.09500
C387        C  0.05575356  0.11079381  0.32685373    -0.12600
C388        C  0.07739567  0.11739360  0.34875636    -0.12600
C389        C  0.10325693  0.15208568  0.35458704     0.09500
C390        C  0.10488924  0.18056758  0.33941658    -0.12600
H391        H  0.08472814  0.19625885  0.30591182     0.13500
H392        H  0.03690978  0.08353192  0.32243552     0.13500
H393        H  0.07509159  0.09511066  0.36053283     0.13500
H394        H  0.12446833  0.20757535  0.34368773     0.13500
C395        C  0.10238747  0.14674510  0.19639503    -0.12600
C396        C  0.06736115  0.14243696  0.19259069     0.09500
C397        C  0.05631467  0.14433548  0.16705709    -0.12600
C398        C  0.07932435  0.14830301  0.14533581    -0.12600
C399        C  0.11403499  0.15107118  0.14886406     0.09500
C400        C  0.12585289  0.15202022  0.17476560    -0.12600
H401        H  0.11138582  0.14556543  0.21602502     0.13500
H402        H  0.02927781  0.14102653  0.16383370     0.13500
H403        H  0.06945237  0.14771636  0.12571637     0.13500
H404        H  0.15287668  0.15554251  0.17821606     0.13500
C405        C  0.16423897  0.22061880  0.04597063    -0.12600
C406        C  0.16328309  0.19797463  0.06087723    -0.14100
C407        C  0.04680977  0.31721664  0.06156357    -0.12600
C408        C  0.06780955  0.31706127  0.04457747    -0.14100
C409        C  0.27253942  0.43353186  0.05064402    -0.12600
C410        C  0.29070440  0.45717187  0.06569066    -0.14100
C411        C  0.16052761  0.22995891  0.45622251    -0.12600
C412        C  0.15964257  0.20894957  0.43883589    -0.14100
C413        C  0.05908635  0.31873670  0.45054088    -0.12600
C414        C  0.03619099  0.31591366  0.43529397    -0.14100
C415        C  0.27130743  0.44899407  0.45469734    -0.12600
C416        C  0.29274446  0.47239226  0.44112707    -0.14100
C417        C  0.05611242  0.23324226  0.95540249    -0.12600
C418        C  0.03316271  0.21360318  0.94075033    -0.14100
C419        C  0.17922295  0.44180583  0.95144586    -0.12600
C420        C  0.17932268  0.46264906  0.93536307    -0.14100
C421        C  0.30363039  0.33823190  0.56145643    -0.12600
C422        C  0.28249784  0.33881295  0.54563539    -0.14100
C423        C  0.29267381  0.34464061  0.93977197    -0.12600
C424        C  0.27226964  0.34461512  0.95745145    -0.14100
C425        C  0.18173759  0.43190691  0.54303100    -0.12600
C426        C  0.17909142  0.45124713  0.56036943    -0.14100
C427        C  0.07074057  0.23194271  0.54785409    -0.12600
C428        C  0.04649214  0.21446899  0.56274587    -0.14100
C429        C  0.39386194  0.34446202  0.80426810    -0.12600
C430        C  0.42943115  0.35069275  0.80828859     0.09500
C431        C  0.44120601  0.35085766  0.83391180    -0.12600
C432        C  0.41822998  0.34721687  0.85552227    -0.12600
C433        C  0.38309882  0.34292355  0.85166944     0.09500
C434        C  0.37055382  0.33972877  0.82582369    -0.12600
H435        H  0.38453223  0.34443008  0.78453483     0.13500
H436        H  0.46880368  0.35609781  0.83724264     0.13500
H437        H  0.42848989  0.34975697  0.87524102     0.13500
H438        H  0.34332144  0.33562534  0.82239589     0.13500
C439        C  0.09977859  0.41629554  0.81574986    -0.12600
C440        C  0.07432087  0.42848763  0.80887265     0.09500
C441        C  0.07163754  0.45599860  0.82410396    -0.12600
C442        C  0.09432686  0.47158926  0.84520921    -0.12600
C443        C  0.12133040  0.46115215  0.85108278     0.09500
C444        C  0.12328004  0.43267991  0.83660956    -0.12600
H445        H  0.10212689  0.39480040  0.80459311     0.13500
H446        H  0.05176303  0.46544264  0.81979532     0.13500
H447        H  0.09137550  0.49260175  0.85660499     0.13500
H448        H  0.14359905  0.42385252  0.84094907     0.13500
C449        C  0.11274708  0.44221359  0.69542113    -0.12600
C450        C  0.07646459  0.41969537  0.69151614     0.09500
C451        C  0.06367842  0.41056691  0.66580378    -0.12600
C452        C  0.08666166  0.42511552  0.64411341    -0.12600
C453        C  0.12266027  0.44907081  0.64794324     0.09500
C454        C  0.13582154  0.45655585  0.67373628    -0.12600
H455        H  0.12290616  0.44951828  0.71519446     0.13500
H456        H  0.03560979  0.39329575  0.66257134     0.13500
H457        H  0.07592565  0.41928036  0.62443200     0.13500
H458        H  0.16352555  0.97497547  0.67707380     0.13500
C459        C  0.44164901  0.33827073  0.66820569    -0.12600
C460        C  0.43023320  0.34301351  0.69371902     0.09500
C461        C  0.39524126  0.33961406  0.69775453    -0.12600
C462        C  0.37253599  0.33324690  0.67638702    -0.12600
C463        C  0.38514911  0.33228428  0.65041311     0.09500
C464        C  0.41937625  0.33318804  0.64667005    -0.12600
H465        H  0.46870574  0.34111323  0.66471089     0.13500
H466        H  0.38599086  0.34328001  0.71731540     0.13500
H467        H  0.34590000  0.33148976  0.67998643     0.13500
H468        H  0.42980387  0.33230053  0.62696658     0.13500
C469        C  0.08614529  0.15845698  0.83288919    -0.12600
C470        C  0.07477188  0.15838313  0.80718964     0.09500
C471        C  0.04660762  0.16762030  0.80283614    -0.12600
C472        C  0.02896487  0.17547566  0.82417939    -0.12600
C473        C  0.03819663  0.17248657  0.85016559     0.09500
C474        C  0.06782929  0.16519568  0.85426573    -0.12600
H475        H  0.10748362  0.15074891  0.83650239     0.13500
H476        H  0.03731933  0.16723544  0.78303675     0.13500
H477        H  0.50680170  0.18188683  0.82046142     0.13500
H478        H  0.07550418  0.16257986  0.87402601     0.13500
C479        C  0.16189487  0.04944962  0.80238062    -0.12600
C480        C  0.14727573  0.07366724  0.80787777     0.09500
C481        C  0.14197262  0.08230502  0.83397474    -0.12600
C482        C  0.14993376  0.06570482  0.85460523    -0.12600
C483        C  0.16297662  0.04011858  0.84923045     0.09500
C484        C  0.16998612  0.03286557  0.82304137    -0.12600
H485        H  0.16578220  0.04248533  0.78218454     0.13500
H486        H  0.13031861  0.10075583  0.83831222     0.13500
H487        H  0.14423765  0.07145841  0.87470506     0.13500
H488        H  0.18030039  0.01336016  0.81864421     0.13500
C489        C  0.17188326  0.07030832  0.68375967    -0.12600
C490        C  0.13628521  0.06081281  0.69202894     0.09500
C491        C  0.10814504  0.03550896  0.67722632    -0.12600
C492        C  0.11540911  0.01946334  0.65484856    -0.12600
C493        C  0.15092860  0.02763457  0.64728256     0.09500
C494        C  0.17916378  0.05361978  0.66157112    -0.12600
H495        H  0.19396511  0.09005834  0.69470174     0.13500
H496        H  0.08042407  0.02839157  0.68278119     0.13500
H497        H  0.09329820  0.00004671  0.64372900     0.13500
H498        H  0.20675705  0.06032100  0.65589409     0.13500
C499        C  0.03315416  0.12346918  0.65242258    -0.12600
C500        C  0.04179001  0.15924563  0.64724981     0.09500
C501        C  0.06650274  0.18647443  0.66306433    -0.12600
C502        C  0.08075876  0.17781801  0.68490235    -0.12600
C503        C  0.06992689  0.14191028  0.69116176     0.09500
C504        C  0.04664846  0.11483340  0.67449402    -0.12600
H505        H  0.51458098  0.10222530  0.64007194     0.13500
H506        H  0.07348902  0.21422433  0.65914827     0.13500
H507        H  0.09913551  0.19900568  0.69738092     0.13500
H508        H  0.03877975  0.08695337  0.67860399     0.13500
C509        C  0.41776236  0.10536510  0.81596501    -0.12600
C510        C  0.43164903  0.08065688  0.80939598     0.09500
C511        C  0.45746287  0.07837656  0.82561580    -0.12600
C512        C  0.47046604  0.10127135  0.84716535    -0.12600
C513        C  0.45891233  0.12787516  0.85260818     0.09500
C514        C  0.43152493  0.12907817  0.83746246    -0.12600
H515        H  0.39742225  0.10720157  0.80398427     0.13500
H516        H  0.46792831  0.05891398  0.82152306     0.13500
H517        H  0.99076760  0.09917011  0.85905590     0.13500
H518        H  0.42187879  0.14913321  0.84164187     0.13500
C519        C  0.39763190  0.43978002  0.82523179    -0.12600
C520        C  0.37077223  0.44001124  0.80904847     0.09500
C521        C  0.33462270  0.41899929  0.81624974    -0.12600
C522        C  0.32569834  0.39695219  0.83844105    -0.12600
C523        C  0.35276319  0.39589076  0.85400062     0.09500
C524        C  0.38872631  0.41848815  0.84760871    -0.12600
H525        H  0.42567894  0.45625741  0.82067191     0.13500
H526        H  0.31329748  0.41898393  0.80438213     0.13500
H527        H  0.29778838  0.37980873  0.84290240     0.13500
H528        H  0.41011091  0.41860574  0.85947227     0.13500
C529        C  0.45836492  0.11888210  0.69734805    -0.12600
C530        C  0.43338772  0.08363389  0.69240301     0.09500
C531        C  0.42135538  0.07301466  0.66663527    -0.12600
C532        C  0.43615716  0.09666887  0.64570826    -0.12600
C533        C  0.46282665  0.13141884  0.65037337     0.09500
C534        C  0.47223255  0.14286939  0.67659192    -0.12600
H535        H  0.46773240  0.12757344  0.71716212     0.13500
H536        H  0.40197444  0.04585281  0.66253522     0.13500
H537        H  0.42834790  0.08717103  0.62575031     0.13500
H538        H  0.99212065  0.16975946  0.68079246     0.13500
C539        C  0.33784932  0.41576038  0.68302922    -0.12600
C540        C  0.37364327  0.43689434  0.69001087     0.09500
C541        C  0.40129323  0.43399386  0.67482963    -0.12600
C542        C  0.39340546  0.41006641  0.65354270    -0.12600
C543        C  0.35769529  0.38773619  0.64734228     0.09500
C544        C  0.32992774  0.39126425  0.66187805    -0.12600
H545        H  0.31602551  0.41764126  0.69423339     0.13500
H546        H  0.42916816  0.45031956  0.67935959     0.13500
H547        H  0.41523720  0.40822777  0.64229850     0.13500
H548        H  0.30218494  0.37436834  0.65732845     0.13500
C549        C  0.46630420  0.18366957  0.56354144    -0.12600
C550        C  0.44310654  0.18155865  0.54884768    -0.14100
C551        C  0.31975415  0.05158411  0.44034048    -0.12600
C552        C  0.31757144  0.07049177  0.45803219    -0.14100
C553        C  0.20722641  0.03107757  0.56059554    -0.12600
C554        C  0.22856005  0.05444723  0.54692922    -0.14100
C555        C  0.43184357  0.26598726  0.45061971    -0.12600
C556        C  0.45590153  0.28211037  0.43513505    -0.14100
C557        C  0.21966506  0.16359015  0.45445640    -0.12600
C558        C  0.19844335  0.16326698  0.43840670    -0.14100
C559        C  0.33979877  0.28994817  0.56075876    -0.12600
C560        C  0.34062415  0.27031072  0.54297944    -0.14100
C561        C  0.21157875  0.04195407  0.93565188    -0.12600
C562        C  0.22901753  0.06620751  0.95033841    -0.14100
C563        C  0.22576965  0.15496809  0.04161643    -0.12600
C564        C  0.20515216  0.15496913  0.05911821    -0.14100
C565        C  0.43192209  0.18211580  0.95614427    -0.12600
C566        C  0.45274199  0.18176385  0.93905336    -0.14100
C567        C  0.31875050  0.05679712  0.04726184    -0.12600
C568        C  0.31845124  0.03584414  0.06324720    -0.14100
C569        C  0.46650949  0.28747895  0.05950160    -0.12600
C570        C  0.44362365  0.26672249  0.04531567    -0.14100
C571        C  0.33360443  0.27866967  0.95499328    -0.12600
C572        C  0.33365121  0.30073907  0.93987456    -0.14100
O573        O  0.35693238  0.60653783  0.02373998    -0.80200
O574        O  0.35747457  0.74248622  0.97421920    -0.64900
O575        O  0.34552611  0.66819726  0.02206436    -1.11500
C576        C  0.25111101  0.59865761  0.96406540     1.06700
O577        O  0.29905339  0.72647783  0.97747711    -0.78100
O578        O  0.24792876  0.66691500  0.99853013    -0.65700
Ni579      Ni  0.38383522  0.65691527  0.03091677     1.34900
C580        C  0.25025213  0.65483609  0.02070218     0.85400
O581        O  0.39294287  0.74071300  0.01841796    -0.78600
O582        O  0.41365071  0.70607315  0.03917993    -0.88900
C583        C  0.33021379  0.74815457  0.96976474     0.85000
O584        O  0.40623658  0.66207615  0.99702682    -0.67100
O585        O  0.25298223  0.62790952  0.95522073    -0.86400
C586        C  0.40753379  0.68073534  0.97736548     0.85800
C587        C  0.41511018  0.73633387  0.03337567     1.07400
H588        H  0.32633734  0.66289559  0.96338127     0.39200
O589        O  0.31599845  0.66898918  0.97904458    -1.09000
O590        O  0.27291970  0.64270197  0.02534033    -0.65700
Ni591      Ni  0.30646446  0.63213350  0.00358712     1.26300
O592        O  0.38906193  0.69840186  0.97567535    -0.65900
O593        O  0.26838437  0.59655931  0.98376836    -0.78200
C594        C  0.32531552  0.58769169  0.03226576     0.85200
O595        O  0.30022472  0.59655333  0.02855814    -0.65400
Ni596      Ni  0.27695598  0.67694470  0.96698233     1.27400
Ni597      Ni  0.35408694  0.70585657  0.99817720     1.26100
H598        H  0.33656370  0.67393435  0.03842868     0.39800
O599        O  0.27060208  0.69872486  0.47816503    -0.80200
O600        O  0.40118751  0.69766881  0.53053713    -0.64900
O601        O  0.32806658  0.68136962  0.48124831    -1.11500
C602        C  0.25925901  0.58316577  0.53526368     1.06700
O603        O  0.39074470  0.64070016  0.52956285    -0.78100
O604        O  0.33775966  0.59550815  0.49886726    -0.65700
Ni605      Ni  0.32063686  0.72034649  0.46834489     1.34900
C606        C  0.31759370  0.59300662  0.47989497     0.85400
O607        O  0.40129180  0.72779002  0.48495562    -0.78600
O608        O  0.37012281  0.74406243  0.45687599    -0.88900
C609        C  0.41028357  0.67313999  0.53552939     0.85000
O610        O  0.32966080  0.74880924  0.49989761    -0.67100
O611        O  0.28942929  0.58321587  0.53959176    -0.86400
C612        C  0.34193621  0.74674568  0.52203562     0.85800
C613        C  0.39935834  0.74510050  0.46521326     1.07400
H614        H  0.32350160  0.66219107  0.54135629     0.39200
O615        O  0.32879664  0.65289210  0.52500976    -1.09000
O616        O  0.29741690  0.60893679  0.47933323    -0.65700
Ni617      Ni  0.29077242  0.64452821  0.50117233     1.26300
O618        O  0.35510861  0.72499035  0.52670208    -0.65900
O619        O  0.25533896  0.60696776  0.52203206    -0.78200
C620        C  0.24911467  0.66751368  0.47081409     0.85200
O621        O  0.25417514  0.64054918  0.47692276    -0.65400
Ni622      Ni  0.33935834  0.61398229  0.53369047     1.27400
Ni623      Ni  0.36523445  0.69088323  0.50564936     1.26100
H624        H  0.33379777  0.67047662  0.46578608     0.39800
O625        O  0.38938500  0.54484749  0.72249868    -0.73700
O626        O  0.35843559  0.97380954  0.77645161    -0.73800
O627        O  0.38882865  0.54602077  0.77664574    -0.73800
O628        O  0.35964828  0.97265765  0.72230634    -0.73900
O629        O  0.41446434  0.97489443  0.72171586    -0.73800
O630        O  0.44274360  0.54601858  0.77599637    -0.73800
O631        O  0.41274559  0.97481770  0.77572114    -0.73700
O632        O  0.44416852  0.54684613  0.72260312    -0.73800
Ni633      Ni  0.37207583  0.50927747  0.74944279     1.25400
Ni634      Ni  0.43036951  0.51061548  0.74892043     1.25400
C635        C  0.42176268  0.55733659  0.71364186     0.88500
C636        C  0.38092252  0.96361845  0.78571531     0.88400
C637        C  0.42040987  0.55687551  0.78595972     0.88400
C638        C  0.38278032  0.96248968  0.71257035     0.88600
O639        O  0.09727083  0.56151464  0.72678681    -0.73700
O640        O  0.06607899  0.61002281  0.77875981    -0.73800
O641        O  0.06311122  0.60265321  0.72575408    -0.73800
O642        O  0.10109648  0.56851058  0.77990526    -0.73900
O643        O  0.15384902  0.61639055  0.77583394    -0.73800
O644        O  0.11502325  0.65155957  0.72232868    -0.73800
O645        O  0.11877313  0.65814964  0.77588121    -0.73700
O646        O  0.14955658  0.60969910  0.72238027    -0.73800
Ni647      Ni  0.08008134  0.58401144  0.75306282     1.25400
Ni648      Ni  0.13625991  0.63576630  0.74903355     1.25400
C649        C  0.12769524  0.57806473  0.71512077     0.88500
C650        C  0.08720336  0.64175429  0.78601067     0.88400
C651        C  0.08323103  0.63195815  0.71446403     0.88400
C652        C  0.13361096  0.58679266  0.78669534     0.88600
O653        O  0.03496134  0.93080550  0.77645750    -0.73700
O654        O  0.46468803  0.88936832  0.72318405    -0.73800
O655        O  0.46333935  0.89257381  0.77626560    -0.73800
O656        O  0.03669325  0.92755958  0.72270729    -0.73900
O657        O  0.04311548  0.87694885  0.72374065    -0.73800
O658        O  0.47089464  0.84265850  0.77851333    -0.73800
O659        O  0.47108340  0.83877921  0.72447221    -0.73700
O660        O  0.04292195  0.88114367  0.77769773    -0.73800
Ni661      Ni  0.99979710  0.91187707  0.74958233     1.25400
Ni662      Ni  0.00726363  0.85803529  0.75115464     1.25400
C663        C  0.04985673  0.91270049  0.78642498     0.88500
C664        C  0.45639179  0.85743240  0.71498760     0.88400
C665        C  0.45552605  0.86220210  0.78642716     0.88400
C666        C  0.05121837  0.90762500  0.71396452     0.88600
C667        C  0.48644010  0.67982370  0.58491292     0.03000
C668        C  0.02419687  0.69431310  0.58445889     0.03000
C669        C  0.04165520  0.68842351  0.60563900    -0.17600
C670        C  0.02218837  0.66775339  0.62694149     0.03000
C671        C  0.48426379  0.65371723  0.62789955     0.03000
C672        C  0.46685168  0.65982375  0.60664960    -0.17600
H673        H  0.43780003  0.64873054  0.60697308     0.05000
H674        H  0.07068523  0.69894879  0.60515307     0.05000
C675        C  0.18550038  0.50891087  0.58178246     0.03000
C676        C  0.17247852  0.97131894  0.58194072     0.03000
C677        C  0.15191744  0.95222950  0.60366610    -0.17600
C678        C  0.14486432  0.96997717  0.62542806     0.03000
C679        C  0.15842243  0.50763551  0.62527004     0.03000
C680        C  0.17863144  0.52657087  0.60354732    -0.17600
H681        H  0.18879568  0.55542645  0.60350416     0.05000
H682        H  0.14154314  0.92337423  0.60377632     0.05000
C683        C  0.31681697  0.84517064  0.91818547     0.03000
C684        C  0.33556814  0.82367034  0.91824357     0.03000
C685        C  0.35665891  0.82336415  0.89627480    -0.17600
C686        C  0.36078314  0.84498753  0.87453526     0.03000
C687        C  0.34438258  0.86876850  0.87509466     0.03000
C688        C  0.32166281  0.86777316  0.89666631    -0.17600
H689        H  0.30841994  0.88529587  0.89699695     0.05000
H690        H  0.36990979  0.80582224  0.89599118     0.05000
C691        C  0.34140260  0.81300148  0.58311391     0.03000
C692        C  0.32538587  0.83692512  0.58302985     0.03000
C693        C  0.32971560  0.85984193  0.60481490    -0.17600
C694        C  0.34983875  0.85959431  0.62658108     0.03000
C695        C  0.36442013  0.83429955  0.62731667     0.03000
C696        C  0.36025714  0.81162154  0.60531155    -0.17600
H697        H  0.37188417  0.79272281  0.60543265     0.05000
H698        H  0.31821743  0.87884261  0.60451401     0.05000
C699        C  0.17526195  0.98251804  0.91389222     0.03000
C700        C  0.19148301  0.52008618  0.91392664     0.03000
C701        C  0.18764673  0.53796655  0.89228813    -0.17600
C702        C  0.16660381  0.51926374  0.87102571     0.03000
C703        C  0.14822622  0.98147638  0.87145226     0.03000
C704        C  0.15370576  0.96345334  0.89266840    -0.17600
H705        H  0.14006040  0.93454072  0.89314818     0.05000
H706        H  0.20083805  0.56694021  0.89210043     0.05000
C707        C  0.47486198  0.67893866  0.91735218     0.03000
C708        C  0.01270865  0.69486376  0.91805323     0.03000
C709        C  0.03243368  0.69347607  0.89558580    -0.17600
C710        C  0.01550051  0.67416547  0.87300726     0.03000
C711        C  0.47750008  0.65518373  0.87321257     0.03000
C712        C  0.45761780  0.65900180  0.89497246    -0.17600
H713        H  0.42857522  0.64501359  0.89496658     0.05000
H714        H  0.06148625  0.70733903  0.89580013     0.05000
O715        O  0.10960451  0.85907427  0.47244851    -0.80200
O716        O  0.24676314  0.86195508  0.52463302    -0.64900
O717        O  0.17267893  0.84903858  0.47590947    -1.11500
C718        C  0.10321560  0.75407760  0.53380763     1.06700
O719        O  0.23213625  0.80417402  0.52106950    -0.78100
O720        O  0.17327838  0.75256958  0.49915810    -0.65700
Ni721      Ni  0.16069204  0.88697831  0.46725167     1.34900
C722        C  0.16062914  0.75448199  0.47711094     0.85400
O723        O  0.24526927  0.89720822  0.48032748    -0.78600
O724        O  0.21026124  0.91824628  0.46051384    -0.88900
C725        C  0.25285850  0.83515346  0.52948661     0.85000
O726        O  0.16316352  0.90703064  0.50173910    -0.67100
O727        O  0.13269942  0.75589229  0.54233635    -0.86400
C728        C  0.18214745  0.90891120  0.52136647     0.85800
C729        C  0.24075720  0.91984285  0.46607703     1.07400
H730        H  0.16676126  0.82923121  0.53466739     0.39200
O731        O  0.17336404  0.81941281  0.51899945    -1.09000
O732        O  0.14780409  0.77659132  0.47261391    -0.65700
Ni733      Ni  0.13657949  0.80964312  0.49428293     1.26300
O734        O  0.20145659  0.89204344  0.52269897    -0.65900
O735        O  0.10093662  0.77147456  0.51422742    -0.78200
C736        C  0.09119845  0.82705961  0.46481974     0.85200
O737        O  0.10096846  0.80281050  0.46909846    -0.65400
Ni738      Ni  0.18211816  0.78085709  0.53094639     1.27400
Ni739      Ni  0.21027680  0.85799767  0.50019931     1.26100
H740        H  0.17891848  0.84047633  0.45953757     0.39800
O741        O  0.20031829  0.77279032  0.02394916    -0.80200
O742        O  0.19904440  0.90415768  0.97228547    -0.64900
O743        O  0.18399178  0.83111929  0.02158964    -1.11500
C744        C  0.08465855  0.76347213  0.96744588     1.06700
O745        O  0.14207444  0.89322666  0.97647416    -0.78100
O746        O  0.09380433  0.83812031  0.00395920    -0.65700
Ni747      Ni  0.22333868  0.82285914  0.03296388     1.34900
C748        C  0.09236253  0.81901853  0.02336774     0.85400
O749        O  0.23100215  0.90419040  0.01760753    -0.78600
O750        O  0.24882057  0.87218664  0.04373869    -0.88900
C751        C  0.17346812  0.91199973  0.96761096     0.85000
O752        O  0.25019541  0.83092411  0.00045440    -0.67100
O753        O  0.08568216  0.79363377  0.96205852    -0.86400
C754        C  0.24847245  0.84475097  0.97889137     0.85800
C755        C  0.24974053  0.90164155  0.03626152     1.07400
H756        H  0.16348477  0.82662380  0.96214037     0.39200
O757        O  0.15435149  0.83212020  0.97855501    -1.09000
O758        O  0.11075674  0.80127856  0.02477736    -0.65700
Ni759      Ni  0.14592606  0.79427536  0.00231768     1.26300
O760        O  0.22712853  0.85882239  0.97530510    -0.69900
O761        O  0.10730846  0.75922841  0.98194623    -0.78200
C762        C  0.16880364  0.75156659  0.03130365     0.85200
O763        O  0.14202062  0.75767739  0.02634378    -0.65400
Ni764      Ni  0.11549980  0.84282969  0.96984952     1.27400
Ni765      Ni  0.19316433  0.86843163  0.99729550     1.26100
H766        H  0.17373558  0.83686375  0.03744262     0.39800
O767        O  0.45785801  0.62788636  0.22298104    -0.73700
O768        O  0.02816388  0.65497770  0.27756279    -0.73800
O769        O  0.03021611  0.65573155  0.22344157    -0.73800
O770        O  0.45602067  0.62746123  0.27710725    -0.73900
O771        O  0.45115763  0.57182401  0.27451919    -0.73800
O772        O  0.02851861  0.60130877  0.22376718    -0.73800
O773        O  0.02282956  0.59923828  0.27742408    -0.73700
O774        O  0.45624818  0.57346312  0.22139239    -0.73800
Ni775      Ni  0.49322478  0.64356556  0.25027458     1.25400
Ni776      Ni  0.48968608  0.58459408  0.24918943     1.25400
C777        C  0.44584091  0.59616608  0.21313187     0.88500
C778        C  0.03572683  0.63092251  0.28728339     0.88400
C779        C  0.04119842  0.63295541  0.21462311     0.88400
C780        C  0.44170998  0.59501161  0.28474825     0.88600
O781        O  0.41004483  0.94179250  0.28041634    -0.73700
O782        O  0.44191639  0.90203216  0.22337230    -0.73800
O783        O  0.40982769  0.94516900  0.22713375    -0.73800
O784        O  0.44172929  0.89754536  0.27627280    -0.73900
O785        O  0.38757504  0.85116965  0.27622847    -0.73800
O786        O  0.35650248  0.89790450  0.22590010    -0.73800
O787        O  0.38897369  0.85412498  0.22254246    -0.73700
O788        O  0.35586536  0.89572898  0.27952952    -0.73800
Ni789      Ni  0.42771614  0.92328459  0.25191301     1.25400
Ni790      Ni  0.37022724  0.87297868  0.25105542     1.25400
C791        C  0.37812560  0.92540086  0.28971006     0.88500
C792        C  0.42063697  0.87232100  0.21300078     0.88400
C793        C  0.37846450  0.92862349  0.21750051     0.88400
C794        C  0.41963505  0.86681243  0.28458410     0.88600
C795        C  0.31419154  0.99426815  0.41973721     0.03000
C796        C  0.32577328  0.53153907  0.41873133     0.03000
C797        C  0.34442545  0.55026819  0.39630009    -0.17600
C798        C  0.35163381  0.53240803  0.37468403     0.03000
C799        C  0.34051884  0.99505272  0.37620198     0.03000
C800        C  0.32168957  0.97651321  0.39845689    -0.17600
H801        H  0.31310082  0.94788966  0.39928783     0.05000
H802        H  0.35308882  0.57888394  0.39556262     0.05000
O803        O  0.11292896  0.95471017  0.27760813    -0.73700
O804        O  0.14663602  0.52453558  0.22233149    -0.73800
O805        O  0.14585119  0.52680996  0.27669220    -0.73800
O806        O  0.11426242  0.95258536  0.22358943    -0.73900
O807        O  0.06007188  0.95211370  0.22496131    -0.73800
O808        O  0.09322494  0.52955429  0.27548197    -0.73800
O809        O  0.09233664  0.52349648  0.22170622    -0.73700
O810        O  0.06056036  0.95808777  0.27844716    -0.73800
Ni811      Ni  0.13191342  0.98967136  0.25007830     1.25400
Ni812      Ni  0.07472601  0.99090537  0.25015433     1.25400
C813        C  0.08139874  0.94582901  0.28761199     0.88500
C814        C  0.12417477  0.53407080  0.21208042     0.88400
C815        C  0.12445719  0.53983174  0.28517364     0.88400
C816        C  0.08212264  0.94054779  0.21535556     0.88600
C817        C  0.32434405  0.51844113  0.08544126     0.03000
C818        C  0.31160622  0.98111474  0.08653114     0.03000
C819        C  0.31954959  0.96626578  0.10845681    -0.17600
C820        C  0.34016288  0.98802172  0.12909035     0.03000
C821        C  0.35222409  0.52557083  0.12828857     0.03000
C822        C  0.34440446  0.54027892  0.10622712    -0.17600
H823        H  0.35395334  0.56900679  0.10526809     0.05000
H824        H  0.31035301  0.93757118  0.10921934     0.05000
C825        C  0.17567321  0.66260603  0.41698537     0.03000
C826        C  0.15693764  0.68413670  0.41724509     0.03000
C827        C  0.13444436  0.68124681  0.39619578    -0.17600
C828        C  0.13047378  0.65754861  0.37486246     0.03000
C829        C  0.15102116  0.63760056  0.37380661     0.03000
C830        C  0.17294365  0.64006903  0.39514845    -0.17600
H831        H  0.18817569  0.62439242  0.39468886     0.05000
H832        H  0.11907542  0.69678782  0.39676704     0.05000
C833        C  0.18123553  0.65367596  0.08107605     0.03000
C834        C  0.16153470  0.67426545  0.08186901     0.03000
C835        C  0.14015974  0.67308473  0.10414609    -0.17600
C836        C  0.13701134  0.65103671  0.12552835     0.03000
C837        C  0.15529360  0.62888481  0.12410500     0.03000
C838        C  0.17776328  0.63109686  0.10218475    -0.17600
H839        H  0.19196796  0.61443543  0.10128746     0.05000
H840        H  0.12609445  0.68987989  0.10496298     0.05000
C841        C  0.47813683  0.80095566  0.41291704     0.03000
C842        C  0.01591193  0.81812117  0.41338169     0.03000
C843        C  0.03523940  0.83954229  0.39219251    -0.17600
C844        C  0.01748308  0.84428917  0.37064019     0.03000
C845        C  0.47972244  0.82479747  0.36923542     0.03000
C846        C  0.46056441  0.80352434  0.39049103    -0.17600
H847        H  0.43153635  0.78965514  0.38987932     0.05000
H848        H  0.06418639  0.85416763  0.39312012     0.05000
C849        C  0.02494220  0.82117438  0.08295978     0.03000
C850        C  0.48724375  0.80785390  0.08159768     0.03000
C851        C  0.46796823  0.81325434  0.10295462    -0.17600
C852        C  0.48549811  0.83242789  0.12530290     0.03000
C853        C  0.02322095  0.84587346  0.12691849     0.03000
C854        C  0.04251305  0.84004925  0.10560000    -0.17600
H855        H  0.07146166  0.85059454  0.10656842     0.05000
H856        H  0.43906625  0.80335571  0.10190635     0.05000
C857        C  0.02797380  0.90066402  0.34830978    -0.12600
C858        C  0.03786964  0.87273453  0.35148643     0.09500
C859        C  0.06493233  0.87081970  0.33503930    -0.12600
C860        C  0.08028390  0.89534537  0.31462386    -0.12600
C861        C  0.06844351  0.92175682  0.31037701     0.09500
C862        C  0.04274425  0.92461959  0.32779393    -0.12600
H863        H  0.50759836  0.90296201  0.36109233     0.13500
H864        H  0.07300439  0.84951433  0.33729438     0.13500
H865        H  0.10022482  0.89276926  0.30153949     0.13500
H866        H  0.03364389  0.94516292  0.32531977     0.13500
C867        C  0.08318211  0.92602452  0.16772631    -0.12600
C868        C  0.07083575  0.91455142  0.19339873     0.09500
C869        C  0.04568301  0.87920829  0.19743552    -0.12600
C870        C  0.03219544  0.85585253  0.17587844    -0.12600
C871        C  0.04275919  0.86793679  0.14996062     0.09500
C872        C  0.06914096  0.90293646  0.14613718    -0.12600
H873        H  0.10240285  0.95338697  0.16432234     0.13500
H874        H  0.03591465  0.86998882  0.21715832     0.13500
H875        H  0.51216745  0.82885243  0.17931693     0.13500
H876        H  0.07746864  0.91296314  0.12639065     0.13500
C877        C  0.13358944  0.55363319  0.33318316    -0.12600
C878        C  0.13512631  0.56567459  0.30737610     0.09500
C879        C  0.14508105  0.60196113  0.30327009    -0.12600
C880        C  0.15269442  0.62581774  0.32477531    -0.12600
C881        C  0.14914807  0.61354104  0.35082249     0.09500
C882        C  0.14042184  0.57732791  0.35474423    -0.12600
H883        H  0.12579431  0.52561168  0.33668445     0.13500
H884        H  0.14646688  0.61170859  0.28348362     0.13500
H885        H  0.15989032  0.65367615  0.32115152     0.13500
H886        H  0.13734702  0.56708347  0.37452507     0.13500
C887        C  0.16937941  0.58047303  0.18205514    -0.12600
C888        C  0.13381204  0.55641478  0.18822452     0.09500
C889        C  0.10640851  0.55374301  0.17132655    -0.12600
C890        C  0.11395969  0.57581804  0.14957689    -0.12600
C891        C  0.14901111  0.60156402  0.14441205     0.09500
C892        C  0.17692108  0.60303468  0.16029442    -0.12600
H893        H  0.19103271  0.58279216  0.19458885     0.13500
H894        H  0.07886198  0.53482488  0.17515079     0.13500
H895        H  0.09213666  0.57389758  0.13736793     0.13500
H896        H  0.20417824  0.62271426  0.15658212     0.13500
C897        C  0.45746342  0.83850077  0.29994920    -0.12600
C898        C  0.43082830  0.85017371  0.30513631     0.09500
C899        C  0.41701712  0.84897191  0.33080705    -0.12600
C900        C  0.43155271  0.83859599  0.35156117    -0.12600
C901        C  0.45972885  0.82882255  0.34675956     0.09500
C902        C  0.47129587  0.82708542  0.32061231    -0.12600
H903        H  0.46816837  0.83917530  0.28011102     0.13500
H904        H  0.39648344  0.85809343  0.33498467     0.13500
H905        H  0.42227087  0.84027027  0.37151548     0.13500
H906        H  0.99250346  0.81892884  0.31642619     0.13500
C907        C  0.43907130  0.81476025  0.16157856    -0.12600
C908        C  0.46446927  0.84132015  0.14559714     0.09500
C909        C  0.47220989  0.87719253  0.15030920    -0.12600
C910        C  0.45702263  0.88679769  0.17202353    -0.12600
C911        C  0.43321774  0.86060210  0.18903225     0.09500
C912        C  0.42329389  0.82440436  0.18327428    -0.12600
H913        H  0.43280967  0.78690057  0.15795885     0.13500
H914        H  0.49134108  0.89785798  0.13784400     0.13500
H915        H  0.46444252  0.91487936  0.17582218     0.13500
H916        H  0.40478952  0.80390575  0.19614115     0.13500
C917        C  0.32273520  0.94689908  0.34167878    -0.12600
C918        C  0.34978040  0.97492025  0.35544385     0.09500
C919        C  0.38580821  0.98480688  0.34868221    -0.12600
C920        C  0.39475198  0.96833036  0.32739993    -0.12600
C921        C  0.36780733  0.94124664  0.31278370     0.09500
C922        C  0.33170848  0.93007941  0.32040314    -0.12600
H923        H  0.29476001  0.93892032  0.34688357     0.13500
H924        H  0.40693932  0.50600122  0.35944662     0.13500
H925        H  0.42285976  0.97705161  0.32228137     0.13500
H926        H  0.31051485  0.90909777  0.30955766     0.13500
C927        C  0.33225432  0.93116868  0.18801526    -0.12600
C928        C  0.36829158  0.94416666  0.19529312     0.09500
C929        C  0.39507307  0.97013505  0.17976019    -0.12600
C930        C  0.38600042  0.98303924  0.15747812    -0.12600
C931        C  0.34990849  0.97116981  0.15085441     0.09500
C932        C  0.32311553  0.94473149  0.16600757    -0.12600
H933        H  0.31114928  0.91075404  0.19944614     0.13500
H934        H  0.42312659  0.97999741  0.18452524     0.13500
H935        H  0.40710721  0.00294108  0.14570063     0.13500
H936        H  0.29513471  0.93519229  0.16112332     0.13500
C937        C  0.38190046  0.55496704  0.30351660    -0.12600
C938        C  0.41537906  0.58410930  0.30665158     0.09500
C939        C  0.42567631  0.59932256  0.33182111    -0.12600
C940        C  0.40399138  0.58366495  0.35393673    -0.12600
C941        C  0.37140116  0.55299461  0.35106463     0.09500
C942        C  0.35961233  0.54020823  0.32547112    -0.12600
H943        H  0.37355586  0.54293618  0.28419935     0.13500
H944        H  0.45164508  0.62166989  0.33456979     0.13500
H945        H  0.41367745  0.59421867  0.37336742     0.13500
H946        H  0.33406515  0.01737492  0.32259964     0.13500
C947        C  0.43085278  0.59440999  0.16575206    -0.12600
C948        C  0.41960402  0.58479462  0.19191412     0.09500
C949        C  0.38446705  0.55933303  0.19713428    -0.12600
C950        C  0.36133783  0.54240290  0.17640494    -0.12600
C951        C  0.37349494  0.54956873  0.15006154     0.09500
C952        C  0.40793912  0.57686340  0.14491880    -0.12600
H953        H  0.45808864  0.61369204  0.16139187     0.13500
H954        H  0.37549838  0.55135699  0.21721331     0.13500
H955        H  0.33474515  0.52185802  0.18088754     0.13500
H956        H  0.41794239  0.58288457  0.12481285     0.13500
C957        C  0.08247452  0.67404394  0.31773025    -0.12600
C958        C  0.05850463  0.63891323  0.31077380     0.09500
C959        C  0.05575357  0.61079379  0.32685373    -0.12600
C960        C  0.07739568  0.61739360  0.34875637    -0.12600
C961        C  0.10325692  0.65208569  0.35458704     0.09500
C962        C  0.10488920  0.68056758  0.33941658    -0.12600
H963        H  0.08472806  0.69625883  0.30591184     0.13500
H964        H  0.03690982  0.58353189  0.32243551     0.13500
H965        H  0.07509163  0.59511067  0.36053284     0.13500
H966        H  0.12446828  0.70757536  0.34368773     0.13500
C967        C  0.10238746  0.64674507  0.19639504    -0.12600
C968        C  0.06736112  0.64243689  0.19259070     0.09500
C969        C  0.05631459  0.64433529  0.16705709    -0.12600
C970        C  0.07932427  0.64830282  0.14533581    -0.12600
C971        C  0.11403495  0.65107108  0.14886407     0.09500
C972        C  0.12585287  0.65202016  0.17476561    -0.12600
H973        H  0.11138585  0.64556546  0.21602503     0.13500
H974        H  0.02927771  0.64102628  0.16383370     0.13500
H975        H  0.06945230  0.64771614  0.12571636     0.13500
H976        H  0.15287667  0.65554247  0.17821605     0.13500
C977        C  0.16423896  0.72061880  0.04597065    -0.12600
C978        C  0.16328306  0.69797464  0.06087725    -0.14100
C979        C  0.04680985  0.81721664  0.06156360    -0.12600
C980        C  0.06780960  0.81706126  0.04457749    -0.14100
C981        C  0.27253939  0.93353188  0.05064403    -0.12600
C982        C  0.29070436  0.95717191  0.06569066    -0.14100
C983        C  0.16052760  0.72995893  0.45622249    -0.12600
C984        C  0.15964257  0.70894959  0.43883588    -0.14100
C985        C  0.05908635  0.81873674  0.45054090    -0.12600
C986        C  0.03619098  0.81591366  0.43529398    -0.14100
C987        C  0.27130748  0.94899407  0.45469735    -0.12600
C988        C  0.29274447  0.97239227  0.44112708    -0.14100
C989        C  0.05611241  0.73324225  0.95540251    -0.12600
C990        C  0.03316269  0.71360318  0.94075035    -0.14100
C991        C  0.17922300  0.94180583  0.95144585    -0.12600
C992        C  0.17932272  0.96264903  0.93536306    -0.14100
C993        C  0.30363041  0.83823193  0.56145642    -0.12600
C994        C  0.28249786  0.83881295  0.54563537    -0.14100
C995        C  0.29267377  0.84464055  0.93977195    -0.12600
C996        C  0.27226959  0.84461507  0.95745142    -0.14100
C997        C  0.18173758  0.93190687  0.54303100    -0.12600
C998        C  0.17909137  0.95124708  0.56036942    -0.14100
C999        C  0.07074055  0.73194265  0.54785403    -0.12600
C1000       C  0.04649213  0.71446893  0.56274581    -0.14100
C1001       C  0.39386191  0.84446195  0.80426807    -0.12600
C1002       C  0.42943112  0.85069271  0.80828857     0.09500
C1003       C  0.44120597  0.85085758  0.83391178    -0.12600
C1004       C  0.41822993  0.84721675  0.85552224    -0.12600
C1005       C  0.38309878  0.84292344  0.85166943     0.09500
C1006       C  0.37055379  0.83972867  0.82582368    -0.12600
H1007       H  0.38453216  0.84443000  0.78453482     0.13500
H1008       H  0.46880365  0.85609774  0.83724262     0.13500
H1009       H  0.42848983  0.84975681  0.87524099     0.13500
H1010       H  0.34332142  0.83562523  0.82239587     0.13500
C1011       C  0.09977857  0.91629553  0.81574985    -0.12600
C1012       C  0.07432086  0.92848764  0.80887265     0.09500
C1013       C  0.07163753  0.95599860  0.82410399    -0.12600
C1014       C  0.09432686  0.97158923  0.84520924    -0.12600
C1015       C  0.12133041  0.96115211  0.85108278     0.09500
C1016       C  0.12328003  0.93267989  0.83660954    -0.12600
H1017       H  0.10212685  0.89480038  0.80459308     0.13500
H1018       H  0.05176303  0.96544265  0.81979535     0.13500
H1019       H  0.09137550  0.99260170  0.85660505     0.13500
H1020       H  0.14359904  0.92385248  0.84094903     0.13500
C1021       C  0.11274706  0.94221359  0.69542114    -0.12600
C1022       C  0.07646455  0.91969541  0.69151614     0.09500
C1023       C  0.06367835  0.91056699  0.66580379    -0.12600
C1024       C  0.08666160  0.92511557  0.64411342    -0.12600
C1025       C  0.12266023  0.94907081  0.64794324     0.09500
C1026       C  0.13582152  0.95655585  0.67373628    -0.12600
H1027       H  0.12290615  0.94951826  0.71519447     0.13500
H1028       H  0.03560970  0.89329587  0.66257136     0.13500
H1029       H  0.07592561  0.91928044  0.62443200     0.13500
H1030       H  0.16352557  0.47497549  0.67707381     0.13500
C1031       C  0.44164904  0.83827076  0.66820565    -0.12600
C1032       C  0.43023322  0.84301352  0.69371899     0.09500
C1033       C  0.39524126  0.83961401  0.69775450    -0.12600
C1034       C  0.37253598  0.83324681  0.67638701    -0.12600
C1035       C  0.38514910  0.83228423  0.65041309     0.09500
C1036       C  0.41937627  0.83318805  0.64667002    -0.12600
H1037       H  0.46870579  0.84111330  0.66471085     0.13500
H1038       H  0.38599083  0.84327994  0.71731537     0.13500
H1039       H  0.34589997  0.83148962  0.67998643     0.13500
H1040       H  0.42980387  0.83230057  0.62696653     0.13500
C1041       C  0.08614538  0.65845702  0.83288918    -0.12600
C1042       C  0.07477197  0.65838321  0.80718963     0.09500
C1043       C  0.04660772  0.66762039  0.80283616    -0.12600
C1044       C  0.02896498  0.67547573  0.82417942    -0.12600
C1045       C  0.03819673  0.67248659  0.85016562     0.09500
C1046       C  0.06782939  0.66519571  0.85426573    -0.12600
H1047       H  0.10748370  0.65074895  0.83650235     0.13500
H1048       H  0.03731943  0.66723558  0.78303678     0.13500
H1049       H  0.50680175  0.68188688  0.82046142     0.13500
H1050       H  0.07550429  0.66257988  0.87402601     0.13500
C1051       C  0.16189493  0.54944969  0.80238063    -0.12600
C1052       C  0.14727579  0.57366731  0.80787778     0.09500
C1053       C  0.14197261  0.58230506  0.83397474    -0.12600
C1054       C  0.14993373  0.56570484  0.85460523    -0.12600
C1055       C  0.16297660  0.54011861  0.84923046     0.09500
C1056       C  0.16998613  0.53286562  0.82304138    -0.12600
H1057       H  0.16578228  0.54248542  0.78218455     0.13500
H1058       H  0.13031858  0.60075586  0.83831221     0.13500
H1059       H  0.14423758  0.57145842  0.87470507     0.13500
H1060       H  0.18030038  0.51336019  0.81864423     0.13500
C1061       C  0.17188330  0.57030834  0.68375967    -0.12600
C1062       C  0.13628525  0.56081281  0.69202899     0.09500
C1063       C  0.10814505  0.53550893  0.67722641    -0.12600
C1064       C  0.11540908  0.51946331  0.65484863    -0.12600
C1065       C  0.15092857  0.52763458  0.64728258     0.09500
C1066       C  0.17916378  0.55361980  0.66157111    -0.12600
H1067       H  0.19396517  0.59005839  0.69470172     0.13500
H1068       H  0.08042408  0.52839152  0.68278133     0.13500
H1069       H  0.09329818  0.50004664  0.64372909     0.13500
H1070       H  0.20675705  0.56032105  0.65589403     0.13500
C1071       C  0.03315421  0.62346917  0.65242255    -0.12600
C1072       C  0.04179007  0.65924562  0.64724977     0.09500
C1073       C  0.06650276  0.68647443  0.66306431    -0.12600
C1074       C  0.08075879  0.67781803  0.68490234    -0.12600
C1075       C  0.06992697  0.64191030  0.69116173     0.09500
C1076       C  0.04664855  0.61483342  0.67449398    -0.12600
H1077       H  0.51458109  0.60222527  0.64007185     0.13500
H1078       H  0.07348899  0.71422433  0.65914826     0.13500
H1079       H  0.09913549  0.69900570  0.69738092     0.13500
H1080       H  0.03877987  0.58695339  0.67860397     0.13500
C1081       C  0.41776236  0.60536511  0.81596503    -0.12600
C1082       C  0.43164902  0.58065688  0.80939599     0.09500
C1083       C  0.45746286  0.57837656  0.82561581    -0.12600
C1084       C  0.47046605  0.60127135  0.84716536    -0.12600
C1085       C  0.45891234  0.62787515  0.85260819     0.09500
C1086       C  0.43152493  0.62907817  0.83746248    -0.12600
H1087       H  0.39742226  0.60720158  0.80398429     0.13500
H1088       H  0.46792828  0.55891397  0.82152305     0.13500
H1089       H  0.99076770  0.59917015  0.85905585     0.13500
H1090       H  0.42187878  0.64913320  0.84164188     0.13500
C1091       C  0.39763184  0.93977999  0.82523180    -0.12600
C1092       C  0.37077218  0.94001119  0.80904846     0.09500
C1093       C  0.33462264  0.91899921  0.81624970    -0.12600
C1094       C  0.32569831  0.89695210  0.83844101    -0.12600
C1095       C  0.35276316  0.89589067  0.85400059     0.09500
C1096       C  0.38872627  0.91848807  0.84760869    -0.12600
H1097       H  0.42567888  0.95625741  0.82067192     0.13500
H1098       H  0.31329742  0.91898382  0.80438208     0.13500
H1099       H  0.29778835  0.87980863  0.84290238     0.13500
H1100       H  0.41011087  0.91860567  0.85947227     0.13500
C1101       C  0.45836493  0.61888213  0.69734802    -0.12600
C1102       C  0.43338774  0.58363392  0.69240300     0.09500
C1103       C  0.42135537  0.57301468  0.66663526    -0.12600
C1104       C  0.43615716  0.59666888  0.64570825    -0.12600
C1105       C  0.46282669  0.63141883  0.65037333     0.09500
C1106       C  0.47223258  0.64286941  0.67659188    -0.12600
H1107       H  0.46773240  0.62757349  0.71716209     0.13500
H1108       H  0.40197440  0.54585284  0.66253523     0.13500
H1109       H  0.42834788  0.58717103  0.62575030     0.13500
H1110       H  0.99212070  0.66975945  0.68079246     0.13500
C1111       C  0.33784932  0.91576034  0.68302924    -0.12600
C1112       C  0.37364327  0.93689433  0.69001088     0.09500
C1113       C  0.40129322  0.93399386  0.67482963    -0.12600
C1114       C  0.39340546  0.91006638  0.65354272    -0.12600
C1115       C  0.35769529  0.88773615  0.64734230     0.09500
C1116       C  0.32992775  0.89126421  0.66187808    -0.12600
H1117       H  0.31602550  0.91764118  0.69423342     0.13500
H1118       H  0.42916816  0.95031959  0.67935958     0.13500
H1119       H  0.41523720  0.90822776  0.64229852     0.13500
H1120       H  0.30218495  0.87436830  0.65732850     0.13500
C1121       C  0.46630425  0.68366957  0.56354142    -0.12600
C1122       C  0.44310660  0.68155866  0.54884764    -0.14100
C1123       C  0.31975418  0.55158411  0.44034049    -0.12600
C1124       C  0.31757146  0.57049180  0.45803219    -0.14100
C1125       C  0.20722644  0.53107762  0.56059556    -0.12600
C1126       C  0.22856007  0.55444727  0.54692923    -0.14100
C1127       C  0.43184361  0.76598727  0.45061972    -0.12600
C1128       C  0.45590154  0.78211039  0.43513506    -0.14100
C1129       C  0.21966507  0.66359018  0.45445642    -0.12600
C1130       C  0.19844336  0.66326701  0.43840671    -0.14100
C1131       C  0.33979879  0.78994820  0.56075873    -0.12600
C1132       C  0.34062418  0.77031076  0.54297941    -0.14100
C1133       C  0.21157874  0.54195410  0.93565189    -0.12600
C1134       C  0.22901752  0.56620752  0.95033844    -0.14100
C1135       C  0.22576964  0.65496813  0.04161644    -0.12600
C1136       C  0.20515214  0.65496917  0.05911822    -0.14100
C1137       C  0.43192206  0.68211581  0.95614429    -0.12600
C1138       C  0.45274197  0.68176387  0.93905337    -0.14100
C1139       C  0.31875042  0.55679709  0.04726187    -0.12600
C1140       C  0.31845116  0.53584409  0.06324721    -0.14100
C1141       C  0.46650947  0.78747897  0.05950159    -0.12600
C1142       C  0.44362365  0.76672251  0.04531565    -0.14100
C1143       C  0.33360436  0.77866961  0.95499328    -0.12600
C1144       C  0.33365116  0.80073901  0.93987456    -0.14100
O1145       O  0.85693240  0.10653781  0.02373991    -0.80200
O1146       O  0.85747460  0.24248624  0.97421920    -0.64900
O1147       O  0.84552612  0.16819724  0.02206433    -1.11500
C1148       C  0.75111103  0.09865763  0.96406536     1.06700
O1149       O  0.79905341  0.22647786  0.97747709    -0.78100
O1150       O  0.74792879  0.16691504  0.99853012    -0.65700
Ni1151     Ni  0.88383523  0.15691524  0.03091674     1.34900
C1152       C  0.75025216  0.15483608  0.02070216     0.85400
O1153       O  0.89294288  0.24071298  0.01841796    -0.78600
O1154       O  0.91365072  0.20607312  0.03917992    -0.88900
C1155       C  0.83021382  0.24815460  0.96976473     0.85000
O1156       O  0.90623660  0.16207615  0.99702680    -0.67100
O1157       O  0.75298221  0.12790954  0.95522072    -0.86400
C1158       C  0.90753381  0.18073535  0.97736546     0.85800
C1159       C  0.91511018  0.23633384  0.03337567     1.07400
H1160       H  0.82633737  0.16289562  0.96338122     0.39200
O1161       O  0.81599847  0.16898920  0.97904454    -1.09000
O1162       O  0.77291970  0.14270191  0.02534028    -0.65700
Ni1163     Ni  0.80646449  0.13213349  0.00358706     1.26300
O1164       O  0.88906194  0.19840186  0.97567533    -0.65900
O1165       O  0.76838443  0.09655932  0.98376829    -0.78200
C1166       C  0.82531555  0.08769167  0.03226570     0.85200
O1167       O  0.80022474  0.09655330  0.02855807    -0.65400
Ni1168     Ni  0.77695599  0.17694472  0.96698231     1.27400
Ni1169     Ni  0.85408696  0.20585656  0.99817718     1.26100
H1170       H  0.83656370  0.17393430  0.03842864     0.39800
O1171       O  0.77060208  0.19872482  0.47816501    -0.80200
O1172       O  0.90118749  0.19766878  0.53053714    -0.64900
O1173       O  0.82806659  0.18136960  0.48124831    -1.11500
C1174       C  0.75925898  0.08316574  0.53526368     1.06700
O1175       O  0.89074468  0.14070013  0.52956284    -0.78100
O1176       O  0.83775960  0.09550806  0.49886729    -0.65700
Ni1177     Ni  0.82063687  0.22034647  0.46834489     1.34900
C1178       C  0.81759369  0.09300657  0.47989498     0.85400
O1179       O  0.90129181  0.22778997  0.48495563    -0.78600
O1180       O  0.87012282  0.24406243  0.45687601    -0.88900
C1181       C  0.91028356  0.17313996  0.53552939     0.85000
O1182       O  0.82966076  0.24880919  0.49989763    -0.67100
O1183       O  0.78942927  0.08321587  0.53959180    -0.86400
C1184       C  0.84193620  0.24674564  0.52203563     0.85800
C1185       C  0.89935835  0.24510047  0.46521327     1.07400
H1186       H  0.82350159  0.16219099  0.54135617     0.39200
O1187       O  0.82879661  0.15289209  0.52500978    -1.09000
O1188       O  0.79741692  0.10893678  0.47933322    -0.65700
Ni1189     Ni  0.79077241  0.14452818  0.50117231     1.26300
O1190       O  0.85510862  0.22499034  0.52670208    -0.65900
O1191       O  0.75533893  0.10696771  0.52203203    -0.78200
C1192       C  0.74911467  0.16751365  0.47081405     0.85200
O1193       O  0.75417515  0.14054916  0.47692271    -0.65400
Ni1194     Ni  0.83935832  0.11398227  0.53369048     1.27400
Ni1195     Ni  0.86523444  0.19088320  0.50564936     1.26100
H1196       H  0.83379778  0.17047660  0.46578608     0.39800
O1197       O  0.88938498  0.04484747  0.72249868    -0.73700
O1198       O  0.85843561  0.47380954  0.77645161    -0.73800
O1199       O  0.88882863  0.04602076  0.77664574    -0.73800
O1200       O  0.85964829  0.47265765  0.72230634    -0.73900
O1201       O  0.91446436  0.47489444  0.72171586    -0.73800
O1202       O  0.94274359  0.04601858  0.77599637    -0.73800
O1203       O  0.91274562  0.47481772  0.77572114    -0.73700
O1204       O  0.94416851  0.04684612  0.72260313    -0.73800
Ni1205     Ni  0.87207582  0.00927744  0.74944279     1.25400
Ni1206     Ni  0.93036951  0.01061548  0.74892044     1.25400
C1207       C  0.92176266  0.05733657  0.71364187     0.88500
C1208       C  0.88092255  0.46361847  0.78571531     0.88400
C1209       C  0.92040985  0.05687551  0.78595972     0.88400
C1210       C  0.88278034  0.46248968  0.71257035     0.88600
O1211       O  0.59727079  0.06151458  0.72678679    -0.73700
O1212       O  0.56607896  0.11002274  0.77875981    -0.73800
O1213       O  0.56311119  0.10265317  0.72575408    -0.73800
O1214       O  0.60109643  0.06851047  0.77990524    -0.73900
O1215       O  0.65384897  0.11639045  0.77583394    -0.73800
O1216       O  0.61502322  0.15155955  0.72232871    -0.73800
O1217       O  0.61877311  0.15814956  0.77588123    -0.73700
O1218       O  0.64955652  0.10969905  0.72238025    -0.73800
Ni1219     Ni  0.58008130  0.08401137  0.75306281     1.25400
Ni1220     Ni  0.63625987  0.13576623  0.74903356     1.25400
C1221       C  0.62769519  0.07806469  0.71512074     0.88500
C1222       C  0.58720333  0.14175422  0.78601068     0.88400
C1223       C  0.58323100  0.13195812  0.71446405     0.88400
C1224       C  0.63361090  0.08679255  0.78669533     0.88600
O1225       O  0.53496137  0.43080550  0.77645749    -0.73700
O1226       O  0.96468805  0.38936833  0.72318405    -0.73800
O1227       O  0.96333939  0.39257382  0.77626560    -0.73800
O1228       O  0.53669327  0.42755957  0.72270728    -0.73900
O1229       O  0.54311546  0.37694881  0.72374064    -0.73800
O1230       O  0.97089469  0.34265852  0.77851335    -0.73800
O1231       O  0.97108339  0.33877919  0.72447223    -0.73700
O1232       O  0.54292197  0.38114367  0.77769773    -0.73800
Ni1233     Ni  0.49979712  0.41187707  0.74958233     1.25400
Ni1234     Ni  0.50726363  0.35803528  0.75115465     1.25400
C1235       C  0.54985675  0.41270049  0.78642497     0.88500
C1236       C  0.95639179  0.35743239  0.71498762     0.88400
C1237       C  0.95552610  0.36220212  0.78642718     0.88400
C1238       C  0.55121836  0.40762496  0.71396451     0.88600
C1239       C  0.98644007  0.17982368  0.58491294     0.03000
C1240       C  0.52419685  0.19431310  0.58445891     0.03000
C1241       C  0.54165516  0.18842352  0.60563904    -0.17600
C1242       C  0.52218832  0.16775341  0.62694153     0.03000
C1243       C  0.98426375  0.15371725  0.62789959     0.03000
C1244       C  0.96685165  0.15982373  0.60664962    -0.17600
H1245       H  0.93779999  0.14873050  0.60697309     0.05000
H1246       H  0.57068519  0.19894880  0.60515313     0.05000
C1247       C  0.68550040  0.00891082  0.58178246     0.03000
C1248       C  0.67247852  0.47131897  0.58194072     0.03000
C1249       C  0.65191745  0.45222951  0.60366609    -0.17600
C1250       C  0.64486430  0.46997715  0.62542805     0.03000
C1251       C  0.65842242  0.00763547  0.62527003     0.03000
C1252       C  0.67863144  0.02657083  0.60354731    -0.17600
H1253       H  0.68879567  0.05542641  0.60350415     0.05000
H1254       H  0.64154317  0.42337425  0.60377630     0.05000
C1255       C  0.81681701  0.34517070  0.91818550     0.03000
C1256       C  0.83556817  0.32367039  0.91824358     0.03000
C1257       C  0.85665892  0.32336420  0.89627480    -0.17600
C1258       C  0.86078316  0.34498759  0.87453527     0.03000
C1259       C  0.84438259  0.36876855  0.87509467     0.03000
C1260       C  0.82166283  0.36777321  0.89666633    -0.17600
H1261       H  0.80841997  0.38529593  0.89699698     0.05000
H1262       H  0.86990980  0.30582229  0.89599118     0.05000
C1263       C  0.84140258  0.31300146  0.58311392     0.03000
C1264       C  0.82538586  0.33692510  0.58302985     0.03000
C1265       C  0.82971561  0.35984194  0.60481488    -0.17600
C1266       C  0.84983877  0.35959434  0.62658106     0.03000
C1267       C  0.86442014  0.33429958  0.62731668     0.03000
C1268       C  0.86025713  0.31162154  0.60531157    -0.17600
H1269       H  0.87188415  0.29272280  0.60543269     0.05000
H1270       H  0.81821745  0.37884263  0.60451398     0.05000
C1271       C  0.67526198  0.48251807  0.91389221     0.03000
C1272       C  0.69148301  0.02008617  0.91392664     0.03000
C1273       C  0.68764671  0.03796652  0.89228813    -0.17600
C1274       C  0.66660381  0.01926371  0.87102571     0.03000
C1275       C  0.64822624  0.48147641  0.87145226     0.03000
C1276       C  0.65370578  0.46345336  0.89266839    -0.17600
H1277       H  0.64006041  0.43454074  0.89314819     0.05000
H1278       H  0.70083802  0.06694018  0.89210043     0.05000
C1279       C  0.97486197  0.17893864  0.91735219     0.03000
C1280       C  0.51270867  0.19486374  0.91805322     0.03000
C1281       C  0.53243368  0.19347605  0.89558578    -0.17600
C1282       C  0.51550050  0.17416546  0.87300724     0.03000
C1283       C  0.97750003  0.15518373  0.87321258     0.03000
C1284       C  0.95761776  0.15900178  0.89497247    -0.17600
H1285       H  0.92857517  0.14501356  0.89496661     0.05000
H1286       H  0.56148625  0.20733901  0.89580011     0.05000
O1287       O  0.60960451  0.35907425  0.47244850    -0.80200
O1288       O  0.74676314  0.36195510  0.52463303    -0.64900
O1289       O  0.67267892  0.34903858  0.47590947    -1.11500
C1290       C  0.60321561  0.25407761  0.53380765     1.06700
O1291       O  0.73213626  0.30417405  0.52106948    -0.78100
O1292       O  0.67327838  0.25256960  0.49915811    -0.65700
Ni1293     Ni  0.66069204  0.38697831  0.46725167     1.34900
C1294       C  0.66062913  0.25448199  0.47711095     0.85400
O1295       O  0.74526927  0.39720823  0.48032749    -0.78600
O1296       O  0.71026124  0.41824628  0.46051383    -0.88900
C1297       C  0.75285850  0.33515348  0.52948661     0.85000
O1298       O  0.66316350  0.40703065  0.50173910    -0.67100
O1299       O  0.63269944  0.25589232  0.54233637    -0.86400
C1300       C  0.68214743  0.40891121  0.52136647     0.85800
C1301       C  0.74075720  0.41984285  0.46607703     1.07400
H1302       H  0.66676130  0.32923118  0.53466730     0.39200
O1303       O  0.67336403  0.31941284  0.51899948    -1.09000
O1304       O  0.64780408  0.27659132  0.47261392    -0.65700
Ni1305     Ni  0.63657949  0.30964312  0.49428294     1.26300
O1306       O  0.70145657  0.39204346  0.52269897    -0.65900
O1307       O  0.60093662  0.27147456  0.51422743    -0.78200
C1308       C  0.59119845  0.32705959  0.46481974     0.85200
O1309       O  0.60096846  0.30281048  0.46909846    -0.65400
Ni1310     Ni  0.68211818  0.28085712  0.53094639     1.27400
Ni1311     Ni  0.71027680  0.35799769  0.50019932     1.26100
H1312       H  0.67891848  0.34047633  0.45953758     0.39800
O1313       O  0.70031828  0.27279031  0.02394915    -0.80200
O1314       O  0.69904438  0.40415769  0.97228547    -0.64900
O1315       O  0.68399178  0.33111930  0.02158963    -1.11500
C1316       C  0.58465855  0.26347216  0.96744587     1.06700
O1317       O  0.64207442  0.39322668  0.97647417    -0.78100
O1318       O  0.59380429  0.33812031  0.00395918    -0.65700
Ni1319     Ni  0.72333868  0.32285913  0.03296387     1.34900
C1320       C  0.59236252  0.31901855  0.02336773     0.85400
O1321       O  0.73100215  0.40419040  0.01760753    -0.78600
O1322       O  0.74882057  0.37218662  0.04373869    -0.88900
C1323       C  0.67346810  0.41199974  0.96761097     0.85000
O1324       O  0.75019540  0.33092411  0.00045440    -0.67100
O1325       O  0.58568216  0.29363380  0.96205850    -0.86400
C1326       C  0.74847245  0.34475098  0.97889137     0.85800
C1327       C  0.74974053  0.40164153  0.03626152     1.07400
H1328       H  0.66348476  0.32662381  0.96214037     0.39200
O1329       O  0.65435148  0.33212022  0.97855501    -1.09000
O1330       O  0.61075675  0.30127861  0.02477736    -0.65700
Ni1331     Ni  0.64592605  0.29427538  0.00231768     1.26300
O1332       O  0.72712853  0.35882239  0.97530511    -0.69900
O1333       O  0.60730844  0.25922844  0.98194623    -0.78200
C1334       C  0.66880363  0.25156659  0.03130364     0.85200
O1335       O  0.64202061  0.25767739  0.02634378    -0.65400
Ni1336     Ni  0.61549979  0.34282971  0.96984952     1.27400
Ni1337     Ni  0.69316432  0.36843163  0.99729550     1.26100
H1338       H  0.67373558  0.33686376  0.03744262     0.39800
O1339       O  0.95785798  0.12788635  0.22298104    -0.73700
O1340       O  0.52816387  0.15497771  0.27756279    -0.73800
O1341       O  0.53021615  0.15573157  0.22344157    -0.73800
O1342       O  0.95602072  0.12746126  0.27710726    -0.73900
O1343       O  0.95115768  0.07182404  0.27451918    -0.73800
O1344       O  0.52851865  0.10130880  0.22376715    -0.73800
O1345       O  0.52282962  0.09923831  0.27742405    -0.73700
O1346       O  0.95624819  0.07346313  0.22139237    -0.73800
Ni1347     Ni  0.99322478  0.14356558  0.25027457     1.25400
Ni1348     Ni  0.98968611  0.08459411  0.24918940     1.25400
C1349       C  0.94584090  0.09616608  0.21313187     0.88500
C1350       C  0.53572686  0.13092253  0.28728338     0.88400
C1351       C  0.54119846  0.13295544  0.21462310     0.88400
C1352       C  0.94171004  0.09501164  0.28474826     0.88600
O1353       O  0.91004483  0.44179248  0.28041637    -0.73700
O1354       O  0.94191638  0.40203218  0.22337231    -0.73800
O1355       O  0.90982769  0.44516903  0.22713378    -0.73800
O1356       O  0.94172929  0.39754534  0.27627280    -0.73900
O1357       O  0.88757502  0.35116964  0.27622847    -0.73800
O1358       O  0.85650250  0.39790453  0.22590011    -0.73800
O1359       O  0.88897369  0.35412499  0.22254247    -0.73700
O1360       O  0.85586535  0.39572898  0.27952953    -0.73800
Ni1361     Ni  0.92771614  0.42328459  0.25191303     1.25400
Ni1362     Ni  0.87022724  0.37297868  0.25105542     1.25400
C1363       C  0.87812560  0.42540084  0.28971008     0.88500
C1364       C  0.92063698  0.37232101  0.21300078     0.88400
C1365       C  0.87846451  0.42862353  0.21750053     0.88400
C1366       C  0.91963504  0.36681241  0.28458409     0.88600
C1367       C  0.81419152  0.49426815  0.41973721     0.03000
C1368       C  0.82577327  0.03153907  0.41873132     0.03000
C1369       C  0.84442546  0.05026818  0.39630009    -0.17600
C1370       C  0.85163384  0.03240802  0.37468403     0.03000
C1371       C  0.84051883  0.49505271  0.37620198     0.03000
C1372       C  0.82168956  0.47651320  0.39845690    -0.17600
H1373       H  0.81310083  0.44788965  0.39928784     0.05000
H1374       H  0.85308886  0.07888393  0.39556263     0.05000
O1375       O  0.61292895  0.45471017  0.27760813    -0.73700
O1376       O  0.64663598  0.02453558  0.22233149    -0.73800
O1377       O  0.64585120  0.02680997  0.27669219    -0.73800
O1378       O  0.61426244  0.45258536  0.22358943    -0.73900
O1379       O  0.56007190  0.45211371  0.22496130    -0.73800
O1380       O  0.59322494  0.02955430  0.27548198    -0.73800
O1381       O  0.59233660  0.02349649  0.22170623    -0.73700
O1382       O  0.56056035  0.45808778  0.27844716    -0.73800
Ni1383     Ni  0.63191343  0.48967135  0.25007830     1.25400
Ni1384     Ni  0.57472603  0.49090537  0.25015432     1.25400
C1385       C  0.58139874  0.44582903  0.28761200     0.88500
C1386       C  0.62417473  0.03407080  0.21208042     0.88400
C1387       C  0.62445720  0.03983176  0.28517364     0.88400
C1388       C  0.58212266  0.44054780  0.21535555     0.88600
C1389       C  0.82434406  0.01844116  0.08544127     0.03000
C1390       C  0.81160619  0.48111471  0.08653114     0.03000
C1391       C  0.81954960  0.46626576  0.10845681    -0.17600
C1392       C  0.84016287  0.48802172  0.12909036     0.03000
C1393       C  0.85222408  0.02557082  0.12828857     0.03000
C1394       C  0.84440446  0.04027894  0.10622713    -0.17600
H1395       H  0.85395335  0.06900681  0.10526811     0.05000
H1396       H  0.81035307  0.43757117  0.10921933     0.05000
C1397       C  0.67567319  0.16260605  0.41698537     0.03000
C1398       C  0.65693759  0.18413670  0.41724510     0.03000
C1399       C  0.63444433  0.18124680  0.39619579    -0.17600
C1400       C  0.63047377  0.15754862  0.37486245     0.03000
C1401       C  0.65102118  0.13760061  0.37380660     0.03000
C1402       C  0.67294366  0.14006908  0.39514844    -0.17600
H1403       H  0.68817572  0.12439249  0.39468885     0.05000
H1404       H  0.61907537  0.19678779  0.39676705     0.05000
C1405       C  0.68123554  0.15367595  0.08107604     0.03000
C1406       C  0.66153471  0.17426544  0.08186899     0.03000
C1407       C  0.64015975  0.17308474  0.10414606    -0.17600
C1408       C  0.63701134  0.15103673  0.12552834     0.03000
C1409       C  0.65529358  0.12888480  0.12410499     0.03000
C1410       C  0.67776327  0.13109684  0.10218474    -0.17600
H1411       H  0.69196794  0.11443540  0.10128747     0.05000
H1412       H  0.62609448  0.18987991  0.10496295     0.05000
C1413       C  0.97813684  0.30095565  0.41291705     0.03000
C1414       C  0.51591193  0.31812120  0.41338172     0.03000
C1415       C  0.53523941  0.33954238  0.39219257    -0.17600
C1416       C  0.51748311  0.34428926  0.37064024     0.03000
C1417       C  0.97972243  0.32479750  0.36923544     0.03000
C1418       C  0.96056441  0.30352433  0.39049104    -0.17600
H1419       H  0.93153635  0.28965510  0.38987931     0.05000
H1420       H  0.56418639  0.35416775  0.39312020     0.05000
C1421       C  0.52494217  0.32117438  0.08295977     0.03000
C1422       C  0.98724374  0.30785390  0.08159769     0.03000
C1423       C  0.96796822  0.31325434  0.10295463    -0.17600
C1424       C  0.98549812  0.33242790  0.12530290     0.03000
C1425       C  0.52322095  0.34587346  0.12691848     0.03000
C1426       C  0.54251305  0.34004925  0.10559999    -0.17600
H1427       H  0.57146166  0.35059453  0.10656840     0.05000
H1428       H  0.93906625  0.30335572  0.10190636     0.05000
C1429       C  0.52797377  0.40066408  0.34830980    -0.12600
C1430       C  0.53786967  0.37273463  0.35148649     0.09500
C1431       C  0.56493239  0.37081982  0.33503938    -0.12600
C1432       C  0.58028392  0.39534545  0.31462392    -0.12600
C1433       C  0.56844351  0.42175686  0.31037703     0.09500
C1434       C  0.54274423  0.42461963  0.32779394    -0.12600
H1435       H  0.00759828  0.40296206  0.36109231     0.13500
H1436       H  0.57300449  0.34951449  0.33729449     0.13500
H1437       H  0.60022485  0.39276933  0.30153957     0.13500
H1438       H  0.53364385  0.44516294  0.32531973     0.13500
C1439       C  0.58318211  0.42602452  0.16772630    -0.12600
C1440       C  0.57083576  0.41455143  0.19339872     0.09500
C1441       C  0.54568301  0.37920831  0.19743552    -0.12600
C1442       C  0.53219545  0.35585254  0.17587844    -0.12600
C1443       C  0.54275920  0.36793679  0.14996061     0.09500
C1444       C  0.56914096  0.40293645  0.14613717    -0.12600
H1445       H  0.60240283  0.45338697  0.16432233     0.13500
H1446       H  0.53591464  0.36998884  0.21715832     0.13500
H1447       H  0.01216755  0.32885242  0.17931694     0.13500
H1448       H  0.57746863  0.41296314  0.12639064     0.13500
C1449       C  0.63358948  0.05363325  0.33318316    -0.12600
C1450       C  0.63512634  0.06567463  0.30737609     0.09500
C1451       C  0.64508107  0.10196117  0.30327007    -0.12600
C1452       C  0.65269444  0.12581779  0.32477529    -0.12600
C1453       C  0.64914811  0.11354110  0.35082248     0.09500
C1454       C  0.64042189  0.07732797  0.35474423    -0.12600
H1455       H  0.62579434  0.02561174  0.33668445     0.13500
H1456       H  0.64646688  0.11170863  0.28348361     0.13500
H1457       H  0.65989034  0.15367619  0.32115149     0.13500
H1458       H  0.63734707  0.06708353  0.37452507     0.13500
C1459       C  0.66937937  0.08047301  0.18205513    -0.12600
C1460       C  0.63381199  0.05641478  0.18822453     0.09500
C1461       C  0.60640844  0.05374303  0.17132657    -0.12600
C1462       C  0.61395964  0.07581807  0.14957691    -0.12600
C1463       C  0.64901107  0.10156402  0.14441205     0.09500
C1464       C  0.67692104  0.10303466  0.16029441    -0.12600
H1465       H  0.69103268  0.08279212  0.19458883     0.13500
H1466       H  0.57886191  0.03482493  0.17515083     0.13500
H1467       H  0.59213662  0.07389763  0.13736793     0.13500
H1468       H  0.70417820  0.12271423  0.15658210     0.13500
C1469       C  0.95746344  0.33850080  0.29994921    -0.12600
C1470       C  0.93082829  0.35017370  0.30513631     0.09500
C1471       C  0.91701709  0.34897188  0.33080705    -0.12600
C1472       C  0.93155268  0.33859597  0.35156117    -0.12600
C1473       C  0.95972885  0.32882256  0.34675957     0.09500
C1474       C  0.97129591  0.32708547  0.32061232    -0.12600
H1475       H  0.96816841  0.33917536  0.28011103     0.13500
H1476       H  0.89648341  0.35809340  0.33498465     0.13500
H1477       H  0.92227082  0.34027023  0.37151547     0.13500
H1478       H  0.49250362  0.31892896  0.31642620     0.13500
C1479       C  0.93907130  0.31476028  0.16157856    -0.12600
C1480       C  0.96446929  0.34132018  0.14559715     0.09500
C1481       C  0.97220992  0.37719256  0.15030922    -0.12600
C1482       C  0.95702265  0.38679772  0.17202354    -0.12600
C1483       C  0.93321775  0.36060212  0.18903225     0.09500
C1484       C  0.92329389  0.32440439  0.18327427    -0.12600
H1485       H  0.93280967  0.28690060  0.15795884     0.13500
H1486       H  0.99134111  0.39785800  0.13784402     0.13500
H1487       H  0.96444256  0.41487939  0.17582219     0.13500
H1488       H  0.90478949  0.30390577  0.19614113     0.13500
C1489       C  0.82273519  0.44689907  0.34167878    -0.12600
C1490       C  0.84978039  0.47492024  0.35544386     0.09500
C1491       C  0.88580820  0.48480688  0.34868221    -0.12600
C1492       C  0.89475197  0.46833035  0.32739993    -0.12600
C1493       C  0.86780732  0.44124662  0.31278371     0.09500
C1494       C  0.83170847  0.43007939  0.32040315    -0.12600
H1495       H  0.79476000  0.43892031  0.34688358     0.13500
H1496       H  0.90693934  0.00600115  0.35944667     0.13500
H1497       H  0.92285975  0.47705160  0.32228138     0.13500
H1498       H  0.81051485  0.40909775  0.30955767     0.13500
C1499       C  0.83225432  0.43116874  0.18801531    -0.12600
C1500       C  0.86829159  0.44416670  0.19529314     0.09500
C1501       C  0.89507308  0.47013507  0.17976020    -0.12600
C1502       C  0.88600043  0.48303926  0.15747813    -0.12600
C1503       C  0.84990849  0.47116983  0.15085442     0.09500
C1504       C  0.82311554  0.44473153  0.16600760    -0.12600
H1505       H  0.81114928  0.41075412  0.19944621     0.13500
H1506       H  0.92312661  0.47999742  0.18452523     0.13500
H1507       H  0.90710721  0.50294108  0.14570062     0.13500
H1508       H  0.79513473  0.43519234  0.16112335     0.13500
C1509       C  0.88190054  0.05496704  0.30351661    -0.12600
C1510       C  0.91537914  0.08410932  0.30665160     0.09500
C1511       C  0.92567640  0.09932259  0.33182114    -0.12600
C1512       C  0.90399144  0.08366495  0.35393675    -0.12600
C1513       C  0.87140122  0.05299460  0.35106463     0.09500
C1514       C  0.85961240  0.04020820  0.32547112    -0.12600
H1515       H  0.87355597  0.04293620  0.28419935     0.13500
H1516       H  0.95164517  0.12166992  0.33456981     0.13500
H1517       H  0.91367747  0.09421867  0.37336746     0.13500
H1518       H  0.83406514  0.51737489  0.32259964     0.13500
C1519       C  0.93085277  0.09440998  0.16575206    -0.12600
C1520       C  0.91960401  0.08479461  0.19191412     0.09500
C1521       C  0.88446703  0.05933302  0.19713428    -0.12600
C1522       C  0.86133781  0.04240288  0.17640495    -0.12600
C1523       C  0.87349493  0.04956871  0.15006154     0.09500
C1524       C  0.90793911  0.07686338  0.14491881    -0.12600
H1525       H  0.95808863  0.11369202  0.16139187     0.13500
H1526       H  0.87549837  0.05135699  0.21721331     0.13500
H1527       H  0.83474512  0.02185799  0.18088755     0.13500
H1528       H  0.91794238  0.08288455  0.12481285     0.13500
C1529       C  0.58247453  0.17404394  0.31773024    -0.12600
C1530       C  0.55850464  0.13891324  0.31077379     0.09500
C1531       C  0.55575358  0.11079379  0.32685372    -0.12600
C1532       C  0.57739569  0.11739360  0.34875636    -0.12600
C1533       C  0.60325692  0.15208569  0.35458704     0.09500
C1534       C  0.60488920  0.18056758  0.33941658    -0.12600
H1535       H  0.58472807  0.19625884  0.30591184     0.13500
H1536       H  0.53690983  0.08353189  0.32243550     0.13500
H1537       H  0.57509164  0.09511067  0.36053283     0.13500
H1538       H  0.62446828  0.20757536  0.34368773     0.13500
C1539       C  0.60238750  0.14674510  0.19639503    -0.12600
C1540       C  0.56736117  0.14243695  0.19259070     0.09500
C1541       C  0.55631467  0.14433547  0.16705710    -0.12600
C1542       C  0.57932435  0.14830299  0.14533581    -0.12600
C1543       C  0.61403498  0.15107116  0.14886406     0.09500
C1544       C  0.62585289  0.15202021  0.17476559    -0.12600
H1545       H  0.61138591  0.14556544  0.21602501     0.13500
H1546       H  0.52927781  0.14102652  0.16383372     0.13500
H1547       H  0.56945238  0.14771636  0.12571637     0.13500
H1548       H  0.65287669  0.15554250  0.17821603     0.13500
C1549       C  0.66423895  0.22061879  0.04597063    -0.12600
C1550       C  0.66328307  0.19797462  0.06087722    -0.14100
C1551       C  0.54680981  0.31721663  0.06156359    -0.12600
C1552       C  0.56780958  0.31706127  0.04457748    -0.14100
C1553       C  0.77253939  0.43353186  0.05064403    -0.12600
C1554       C  0.79070435  0.45717187  0.06569066    -0.14100
C1555       C  0.66052756  0.22995891  0.45622251    -0.12600
C1556       C  0.65964251  0.20894957  0.43883590    -0.14100
C1557       C  0.55908635  0.31873672  0.45054090    -0.12600
C1558       C  0.53619098  0.31591365  0.43529399    -0.14100
C1559       C  0.77130747  0.44899406  0.45469735    -0.12600
C1560       C  0.79274447  0.47239226  0.44112708    -0.14100
C1561       C  0.55611242  0.23324227  0.95540249    -0.12600
C1562       C  0.53316271  0.21360318  0.94075033    -0.14100
C1563       C  0.67922298  0.44180584  0.95144586    -0.12600
C1564       C  0.67932274  0.46264906  0.93536307    -0.14100
C1565       C  0.80363040  0.33823190  0.56145641    -0.12600
C1566       C  0.78249787  0.33881295  0.54563537    -0.14100
C1567       C  0.79267381  0.34464061  0.93977197    -0.12600
C1568       C  0.77226961  0.34461511  0.95745144    -0.14100
C1569       C  0.68173756  0.43190689  0.54303099    -0.12600
C1570       C  0.67909137  0.45124711  0.56036941    -0.14100
C1571       C  0.57074057  0.23194266  0.54785406    -0.12600
C1572       C  0.54649214  0.21446894  0.56274584    -0.14100
C1573       C  0.89386196  0.34446201  0.80426809    -0.12600
C1574       C  0.92943117  0.35069276  0.80828859     0.09500
C1575       C  0.94120602  0.35085768  0.83391181    -0.12600
C1576       C  0.91822998  0.34721688  0.85552227    -0.12600
C1577       C  0.88309882  0.34292353  0.85166944     0.09500
C1578       C  0.87055384  0.33972876  0.82582369    -0.12600
H1579       H  0.88453223  0.34443005  0.78453483     0.13500
H1580       H  0.96880370  0.35609784  0.83724265     0.13500
H1581       H  0.92848988  0.34975697  0.87524103     0.13500
H1582       H  0.84332147  0.33562532  0.82239588     0.13500
C1583       C  0.59977856  0.41629552  0.81574987    -0.12600
C1584       C  0.57432087  0.42848764  0.80887265     0.09500
C1585       C  0.57163756  0.45599864  0.82410396    -0.12600
C1586       C  0.59432690  0.47158928  0.84520920    -0.12600
C1587       C  0.62133043  0.46115214  0.85108278     0.09500
C1588       C  0.62328002  0.43267988  0.83660957    -0.12600
H1589       H  0.60212682  0.39480035  0.80459313     0.13500
H1590       H  0.55176308  0.46544271  0.81979531     0.13500
H1591       H  0.59137557  0.49260178  0.85660499     0.13500
H1592       H  0.64359901  0.42385245  0.84094908     0.13500
C1593       C  0.61274704  0.44221358  0.69542113    -0.12600
C1594       C  0.57646454  0.41969537  0.69151613     0.09500
C1595       C  0.56367836  0.41056691  0.66580378    -0.12600
C1596       C  0.58666160  0.42511550  0.64411341    -0.12600
C1597       C  0.62266022  0.44907078  0.64794323     0.09500
C1598       C  0.63582149  0.45655583  0.67373628    -0.12600
H1599       H  0.62290611  0.44951828  0.71519446     0.13500
H1600       H  0.53560973  0.39329576  0.66257134     0.13500
H1601       H  0.57592560  0.41928035  0.62443200     0.13500
H1602       H  0.66352554  0.97497540  0.67707379     0.13500
C1603       C  0.94164902  0.33827074  0.66820568    -0.12600
C1604       C  0.93023322  0.34301352  0.69371901     0.09500
C1605       C  0.89524128  0.33961406  0.69775453    -0.12600
C1606       C  0.87253601  0.33324691  0.67638702    -0.12600
C1607       C  0.88514910  0.33228428  0.65041311     0.09500
C1608       C  0.91937625  0.33318804  0.64667005    -0.12600
H1609       H  0.96870576  0.34111324  0.66471087     0.13500
H1610       H  0.88599085  0.34328001  0.71731539     0.13500
H1611       H  0.84590001  0.33148977  0.67998643     0.13500
H1612       H  0.92980384  0.33230053  0.62696657     0.13500
C1613       C  0.58614536  0.15845698  0.83288917    -0.12600
C1614       C  0.57477193  0.15838313  0.80718963     0.09500
C1615       C  0.54660766  0.16762028  0.80283615    -0.12600
C1616       C  0.52896494  0.17547566  0.82417940    -0.12600
C1617       C  0.53819671  0.17248657  0.85016560     0.09500
C1618       C  0.56782937  0.16519570  0.85426572    -0.12600
H1619       H  0.60748369  0.15074892  0.83650236     0.13500
H1620       H  0.53731934  0.16723542  0.78303677     0.13500
H1621       H  0.00680162  0.18188683  0.82046140     0.13500
H1622       H  0.57550427  0.16257988  0.87402600     0.13500
C1623       C  0.66189485  0.04944957  0.80238064    -0.12600
C1624       C  0.64727573  0.07366720  0.80787777     0.09500
C1625       C  0.64197260  0.08230501  0.83397473    -0.12600
C1626       C  0.64993373  0.06570481  0.85460523    -0.12600
C1627       C  0.66297660  0.04011857  0.84923047     0.09500
C1628       C  0.66998610  0.03286554  0.82304139    -0.12600
H1629       H  0.66578217  0.04248527  0.78218456     0.13500
H1630       H  0.63031860  0.10075583  0.83831218     0.13500
H1631       H  0.64423761  0.07145842  0.87470506     0.13500
H1632       H  0.68030036  0.01336012  0.81864425     0.13500
C1633       C  0.67188327  0.07030832  0.68375965    -0.12600
C1634       C  0.63628521  0.06081279  0.69202896     0.09500
C1635       C  0.60814501  0.03550891  0.67722637    -0.12600
C1636       C  0.61540905  0.01946328  0.65484859    -0.12600
C1637       C  0.65092855  0.02763454  0.64728256     0.09500
C1638       C  0.67916375  0.05361977  0.66157109    -0.12600
H1639       H  0.69396514  0.09005836  0.69470170     0.13500
H1640       H  0.58042405  0.02839152  0.68278128     0.13500
H1641       H  0.59329815  0.00004662  0.64372905     0.13500
H1642       H  0.70675703  0.06032101  0.65589404     0.13500
C1643       C  0.53315414  0.12346918  0.65242260    -0.12600
C1644       C  0.54179001  0.15924562  0.64724981     0.09500
C1645       C  0.56650274  0.18647443  0.66306433    -0.12600
C1646       C  0.58075879  0.17781801  0.68490235    -0.12600
C1647       C  0.56992694  0.14191029  0.69116175     0.09500
C1648       C  0.54664848  0.11483341  0.67449402    -0.12600
H1649       H  0.01458101  0.10222530  0.64007191     0.13500
H1650       H  0.57348900  0.21422433  0.65914828     0.13500
H1651       H  0.59913554  0.19900569  0.69738091     0.13500
H1652       H  0.53877977  0.08695338  0.67860400     0.13500
C1653       C  0.91776233  0.10536510  0.81596502    -0.12600
C1654       C  0.93164900  0.08065687  0.80939599     0.09500
C1655       C  0.95746284  0.07837656  0.82561581    -0.12600
C1656       C  0.97046600  0.10127134  0.84716537    -0.12600
C1657       C  0.95891227  0.12787514  0.85260820     0.09500
C1658       C  0.93152488  0.12907815  0.83746248    -0.12600
H1659       H  0.89742224  0.10720157  0.80398427     0.13500
H1660       H  0.96792827  0.05891398  0.82152305     0.13500
H1661       H  0.49076764  0.09917012  0.85905588     0.13500
H1662       H  0.92187872  0.14913319  0.84164187     0.13500
C1663       C  0.89763187  0.43978000  0.82523180    -0.12600
C1664       C  0.87077221  0.44001122  0.80904846     0.09500
C1665       C  0.83462267  0.41899927  0.81624972    -0.12600
C1666       C  0.82569833  0.39695216  0.83844103    -0.12600
C1667       C  0.85276317  0.39589072  0.85400060     0.09500
C1668       C  0.88872629  0.41848811  0.84760871    -0.12600
H1669       H  0.92567891  0.45625739  0.82067192     0.13500
H1670       H  0.81329745  0.41898390  0.80438211     0.13500
H1671       H  0.79778836  0.37980870  0.84290238     0.13500
H1672       H  0.91011088  0.41860570  0.85947229     0.13500
C1673       C  0.95836490  0.11888210  0.69734805    -0.12600
C1674       C  0.93338771  0.08363389  0.69240302     0.09500
C1675       C  0.92135537  0.07301466  0.66663528    -0.12600
C1676       C  0.93615715  0.09666887  0.64570827    -0.12600
C1677       C  0.96282665  0.13141883  0.65037337     0.09500
C1678       C  0.97223254  0.14286939  0.67659191    -0.12600
H1679       H  0.96773237  0.12757345  0.71716212     0.13500
H1680       H  0.90197442  0.04585281  0.66253523     0.13500
H1681       H  0.92834788  0.08717102  0.62575032     0.13500
H1682       H  0.49212067  0.16975945  0.68079247     0.13500
C1683       C  0.83784934  0.41576033  0.68302924    -0.12600
C1684       C  0.87364328  0.43689432  0.69001088     0.09500
C1685       C  0.90129324  0.43399387  0.67482962    -0.12600
C1686       C  0.89340548  0.41006643  0.65354269    -0.12600
C1687       C  0.85769531  0.38773620  0.64734227     0.09500
C1688       C  0.82992777  0.39126423  0.66187806    -0.12600
H1689       H  0.81602551  0.41764115  0.69423343     0.13500
H1690       H  0.92916817  0.45031960  0.67935958     0.13500
H1691       H  0.91523722  0.40822780  0.64229848     0.13500
H1692       H  0.80218497  0.37436831  0.65732847     0.13500
C1693       C  0.96630422  0.18366954  0.56354142    -0.12600
C1694       C  0.94310659  0.18155862  0.54884765    -0.14100
C1695       C  0.81975417  0.05158412  0.44034049    -0.12600
C1696       C  0.81757145  0.07049178  0.45803220    -0.14100
C1697       C  0.70722644  0.03107758  0.56059556    -0.12600
C1698       C  0.72856005  0.05444724  0.54692923    -0.14100
C1699       C  0.93184363  0.26598724  0.45061973    -0.12600
C1700       C  0.95590155  0.28211036  0.43513506    -0.14100
C1701       C  0.71966505  0.16359017  0.45445641    -0.12600
C1702       C  0.69844333  0.16326701  0.43840671    -0.14100
C1703       C  0.83979878  0.28994816  0.56075876    -0.12600
C1704       C  0.84062416  0.27031072  0.54297943    -0.14100
C1705       C  0.71157873  0.04195409  0.93565189    -0.12600
C1706       C  0.72901751  0.06620753  0.95033842    -0.14100
C1707       C  0.72576967  0.15496811  0.04161644    -0.12600
C1708       C  0.70515217  0.15496914  0.05911822    -0.14100
C1709       C  0.93192207  0.18211582  0.95614428    -0.12600
C1710       C  0.95274198  0.18176386  0.93905337    -0.14100
C1711       C  0.81875047  0.05679711  0.04726185    -0.12600
C1712       C  0.81845119  0.03584413  0.06324721    -0.14100
C1713       C  0.96650946  0.28747895  0.05950161    -0.12600
C1714       C  0.94362364  0.26672248  0.04531567    -0.14100
C1715       C  0.83360441  0.27866966  0.95499329    -0.12600
C1716       C  0.83365121  0.30073907  0.93987458    -0.14100
O1717       O  0.85693235  0.60653781  0.02373999    -0.80200
O1718       O  0.85747464  0.74248624  0.97421923    -0.64900
O1719       O  0.84552611  0.66819727  0.02206441    -1.11500
C1720       C  0.75111102  0.59865763  0.96406541     1.06700
O1721       O  0.79905345  0.72647785  0.97747713    -0.78100
O1722       O  0.74792878  0.66691502  0.99853013    -0.65700
Ni1723     Ni  0.88383523  0.65691525  0.03091678     1.34900
C1724       C  0.75025214  0.65483611  0.02070219     0.85400
O1725       O  0.89294291  0.74071300  0.01841799    -0.78600
O1726       O  0.91365076  0.70607313  0.03917993    -0.88900
C1727       C  0.83021386  0.74815458  0.96976475     0.85000
O1728       O  0.90623657  0.66207611  0.99702681    -0.67100
O1729       O  0.75298226  0.62790954  0.95522073    -0.86400
C1730       C  0.90753379  0.68073533  0.97736548     0.85800
C1731       C  0.91511023  0.73633386  0.03337569     1.07400
H1732       H  0.82633746  0.66289555  0.96338117     0.39200
O1733       O  0.81599846  0.66898920  0.97904463    -1.09000
O1734       O  0.77291970  0.64270199  0.02534035    -0.65700
Ni1735     Ni  0.80646446  0.63213350  0.00358714     1.26300
O1736       O  0.88906195  0.69840187  0.97567537    -0.65900
O1737       O  0.76838436  0.59655933  0.98376838    -0.78200
C1738       C  0.82531549  0.58769168  0.03226577     0.85200
O1739       O  0.80022470  0.59655334  0.02855816    -0.65400
Ni1740     Ni  0.77695602  0.67694472  0.96698234     1.27400
Ni1741     Ni  0.85408698  0.70585658  0.99817723     1.26100
H1742       H  0.83656379  0.67393430  0.03842859     0.39800
O1743       O  0.77060208  0.69872485  0.47816505    -0.80200
O1744       O  0.90118749  0.69766882  0.53053714    -0.64900
O1745       O  0.82806658  0.68136962  0.48124832    -1.11500
C1746       C  0.75925900  0.58316576  0.53526370     1.06700
O1747       O  0.89074470  0.64070017  0.52956283    -0.78100
O1748       O  0.83775965  0.59550814  0.49886725    -0.65700
Ni1749     Ni  0.82063685  0.72034649  0.46834489     1.34900
C1750       C  0.81759368  0.59300661  0.47989497     0.85400
O1751       O  0.90129178  0.72779003  0.48495563    -0.78600
O1752       O  0.87012279  0.74406244  0.45687599    -0.88900
C1753       C  0.91028356  0.67314000  0.53552940     0.85000
O1754       O  0.82966078  0.74880925  0.49989761    -0.67100
O1755       O  0.78942928  0.58321586  0.53959177    -0.86400
C1756       C  0.84193618  0.74674568  0.52203563     0.85800
C1757       C  0.89935832  0.74510050  0.46521326     1.07400
H1758       H  0.82350159  0.66219105  0.54135629     0.39200
O1759       O  0.82879663  0.65289210  0.52500977    -1.09000
O1760       O  0.79741688  0.60893679  0.47933324    -0.65700
Ni1761     Ni  0.79077242  0.64452821  0.50117234     1.26300
O1762       O  0.85510857  0.72499035  0.52670209    -0.65900
O1763       O  0.75533895  0.60696776  0.52203207    -0.78200
C1764       C  0.74911469  0.66751368  0.47081409     0.85200
O1765       O  0.75417514  0.64054918  0.47692277    -0.65400
Ni1766     Ni  0.83935834  0.61398229  0.53369046     1.27400
Ni1767     Ni  0.86523444  0.69088324  0.50564937     1.26100
H1768       H  0.83379777  0.67047662  0.46578609     0.39800
O1769       O  0.88938496  0.54484748  0.72249868    -0.73700
O1770       O  0.85843563  0.97380954  0.77645161    -0.73800
O1771       O  0.88882861  0.54602076  0.77664575    -0.73800
O1772       O  0.85964833  0.97265764  0.72230634    -0.73900
O1773       O  0.91446440  0.97489444  0.72171587    -0.73800
O1774       O  0.94274357  0.54601858  0.77599637    -0.73800
O1775       O  0.91274565  0.97481772  0.77572115    -0.73700
O1776       O  0.94416848  0.54684612  0.72260312    -0.73800
Ni1777     Ni  0.87207579  0.50927745  0.74944279     1.25400
Ni1778     Ni  0.93036948  0.51061548  0.74892043     1.25400
C1779       C  0.92176264  0.55733658  0.71364187     0.88500
C1780       C  0.88092258  0.96361847  0.78571531     0.88400
C1781       C  0.92040985  0.55687551  0.78595973     0.88400
C1782       C  0.88278038  0.96248968  0.71257036     0.88600
O1783       O  0.59727084  0.56151464  0.72678681    -0.73700
O1784       O  0.56607899  0.61002282  0.77875981    -0.73800
O1785       O  0.56311120  0.60265320  0.72575408    -0.73800
O1786       O  0.60109646  0.56851057  0.77990526    -0.73900
O1787       O  0.65384901  0.61639054  0.77583393    -0.73800
O1788       O  0.61502322  0.65155957  0.72232868    -0.73800
O1789       O  0.61877315  0.65814964  0.77588121    -0.73700
O1790       O  0.64955657  0.60969911  0.72238025    -0.73800
Ni1791     Ni  0.58008133  0.58401144  0.75306282     1.25400
Ni1792     Ni  0.63625990  0.63576629  0.74903355     1.25400
C1793       C  0.62769525  0.57806474  0.71512076     0.88500
C1794       C  0.58720338  0.64175429  0.78601069     0.88400
C1795       C  0.58323100  0.63195814  0.71446403     0.88400
C1796       C  0.63361093  0.58679266  0.78669535     0.88600
O1797       O  0.53496136  0.93080550  0.77645750    -0.73700
O1798       O  0.96468802  0.88936833  0.72318406    -0.73800
O1799       O  0.96333934  0.89257382  0.77626560    -0.73800
O1800       O  0.53669325  0.92755957  0.72270728    -0.73900
O1801       O  0.54311548  0.87694882  0.72374066    -0.73800
O1802       O  0.97089465  0.84265851  0.77851332    -0.73800
O1803       O  0.97108340  0.83877921  0.72447220    -0.73700
O1804       O  0.54292195  0.88114366  0.77769774    -0.73800
Ni1805     Ni  0.49979711  0.91187707  0.74958233     1.25400
Ni1806     Ni  0.50726362  0.85803528  0.75115465     1.25400
C1807       C  0.54985673  0.91270048  0.78642498     0.88500
C1808       C  0.95639178  0.85743240  0.71498761     0.88400
C1809       C  0.95552606  0.86220210  0.78642716     0.88400
C1810       C  0.55121836  0.90762497  0.71396451     0.88600
C1811       C  0.98644009  0.67982371  0.58491294     0.03000
C1812       C  0.52419688  0.69431311  0.58445889     0.03000
C1813       C  0.54165519  0.68842352  0.60563900    -0.17600
C1814       C  0.52218835  0.66775337  0.62694148     0.03000
C1815       C  0.98426381  0.65371726  0.62789958     0.03000
C1816       C  0.96685169  0.65982378  0.60664963    -0.17600
H1817       H  0.93780004  0.64873058  0.60697313     0.05000
H1818       H  0.57068523  0.69894881  0.60515309     0.05000
C1819       C  0.68550033  0.50891085  0.58178245     0.03000
C1820       C  0.67247862  0.97131894  0.58194075     0.03000
C1821       C  0.65191753  0.95222949  0.60366612    -0.17600
C1822       C  0.64486432  0.96997715  0.62542805     0.03000
C1823       C  0.65842241  0.50763548  0.62527004     0.03000
C1824       C  0.67863141  0.52657084  0.60354732    -0.17600
H1825       H  0.68879566  0.55542643  0.60350418     0.05000
H1826       H  0.64154327  0.92337423  0.60377635     0.05000
C1827       C  0.81681699  0.84517064  0.91818548     0.03000
C1828       C  0.83556817  0.82367035  0.91824358     0.03000
C1829       C  0.85665896  0.82336419  0.89627481    -0.17600
C1830       C  0.86078318  0.84498756  0.87453528     0.03000
C1831       C  0.84438260  0.86876851  0.87509466     0.03000
C1832       C  0.82166283  0.86777317  0.89666632    -0.17600
H1833       H  0.80841997  0.88529589  0.89699696     0.05000
H1834       H  0.86990986  0.80582230  0.89599121     0.05000
C1835       C  0.84140253  0.81300147  0.58311393     0.03000
C1836       C  0.82538582  0.83692511  0.58302987     0.03000
C1837       C  0.82971554  0.85984193  0.60481491    -0.17600
C1838       C  0.84983869  0.85959431  0.62658109     0.03000
C1839       C  0.86442008  0.83429956  0.62731669     0.03000
C1840       C  0.86025708  0.81162154  0.60531157    -0.17600
H1841       H  0.87188411  0.79272281  0.60543268     0.05000
H1842       H  0.81821738  0.87884262  0.60451401     0.05000
C1843       C  0.67526196  0.98251807  0.91389223     0.03000
C1844       C  0.69148306  0.52008618  0.91392663     0.03000
C1845       C  0.68764677  0.53796655  0.89228812    -0.17600
C1846       C  0.66660386  0.51926373  0.87102570     0.03000
C1847       C  0.64822622  0.98147639  0.87145227     0.03000
C1848       C  0.65370576  0.96345336  0.89266840    -0.17600
H1849       H  0.64006042  0.93454074  0.89314819     0.05000
H1850       H  0.70083807  0.56694020  0.89210043     0.05000
C1851       C  0.97486198  0.67893866  0.91735218     0.03000
C1852       C  0.51270865  0.69486374  0.91805323     0.03000
C1853       C  0.53243365  0.69347604  0.89558579    -0.17600
C1854       C  0.51550049  0.67416545  0.87300725     0.03000
C1855       C  0.97750010  0.65518373  0.87321258     0.03000
C1856       C  0.95761780  0.65900180  0.89497246    -0.17600
H1857       H  0.92857521  0.64501359  0.89496657     0.05000
H1858       H  0.56148622  0.70733898  0.89580012     0.05000
O1859       O  0.60960447  0.85907419  0.47244853    -0.80200
O1860       O  0.74676314  0.86195508  0.52463299    -0.64900
O1861       O  0.67267890  0.84903855  0.47590948    -1.11500
C1862       C  0.60321563  0.75407755  0.53380762     1.06700
O1863       O  0.73213627  0.80417402  0.52106948    -0.78100
O1864       O  0.67327839  0.75256955  0.49915811    -0.65700
Ni1865     Ni  0.66069200  0.88697826  0.46725167     1.34900
C1866       C  0.66062918  0.75448197  0.47711093     0.85400
O1867       O  0.74526925  0.89720821  0.48032745    -0.78600
O1868       O  0.71026119  0.91824624  0.46051382    -0.88900
C1869       C  0.75285850  0.83515346  0.52948659     0.85000
O1870       O  0.66316350  0.90703062  0.50173910    -0.67100
O1871       O  0.63269945  0.75589229  0.54233637    -0.86400
C1872       C  0.68214746  0.90891118  0.52136646     0.85800
C1873       C  0.74075716  0.91984283  0.46607701     1.07400
H1874       H  0.66676130  0.82923111  0.53466724     0.39200
O1875       O  0.67336403  0.81941279  0.51899945    -1.09000
O1876       O  0.64780414  0.77659131  0.47261389    -0.65700
Ni1877     Ni  0.63657950  0.80964306  0.49428291     1.26300
O1878       O  0.70145659  0.89204342  0.52269895    -0.65900
O1879       O  0.60093664  0.77147446  0.51422738    -0.78200
C1880       C  0.59119842  0.82705954  0.46481975     0.85200
O1881       O  0.60096844  0.80281043  0.46909845    -0.65400
Ni1882     Ni  0.68211819  0.78085708  0.53094639     1.27400
Ni1883     Ni  0.71027680  0.85799765  0.50019928     1.26100
H1884       H  0.67891850  0.84047625  0.45953744     0.39800
O1885       O  0.70031828  0.77279033  0.02394915    -0.80200
O1886       O  0.69904438  0.90415769  0.97228547    -0.64900
O1887       O  0.68399175  0.83111931  0.02158967    -1.11500
C1888       C  0.58465855  0.76347212  0.96744588     1.06700
O1889       O  0.64207442  0.89322667  0.97647414    -0.78100
O1890       O  0.59380430  0.83812031  0.00395920    -0.65700
Ni1891     Ni  0.72333867  0.82285913  0.03296388     1.34900
C1892       C  0.59236249  0.81901853  0.02336773     0.85400
O1893       O  0.73100219  0.90419041  0.01760751    -0.78600
O1894       O  0.74882056  0.87218662  0.04373871    -0.88900
C1895       C  0.67346811  0.91199974  0.96761095     0.85000
O1896       O  0.75019541  0.83092412  0.00045441    -0.67100
O1897       O  0.58568215  0.79363377  0.96205852    -0.86400
C1898       C  0.74847245  0.84475097  0.97889137     0.85800
C1899       C  0.74974057  0.90164154  0.03626151     1.07400
H1900       H  0.66348475  0.82662381  0.96214038     0.39200
O1901       O  0.65435148  0.83212021  0.97855502    -1.09000
O1902       O  0.61075671  0.80127856  0.02477736    -0.65700
Ni1903     Ni  0.64592605  0.79427537  0.00231768     1.26300
O1904       O  0.72712852  0.85882238  0.97530510    -0.69900
O1905       O  0.60730846  0.75922842  0.98194623    -0.78200
C1906       C  0.66880364  0.75156660  0.03130364     0.85200
O1907       O  0.64202061  0.75767740  0.02634379    -0.65400
Ni1908     Ni  0.61549978  0.84282969  0.96984952     1.27400
Ni1909     Ni  0.69316433  0.86843164  0.99729550     1.26100
H1910       H  0.67373565  0.83686372  0.03744249     0.39800
O1911       O  0.95785799  0.62788635  0.22298104    -0.73700
O1912       O  0.52816387  0.65497770  0.27756280    -0.73800
O1913       O  0.53021613  0.65573155  0.22344158    -0.73800
O1914       O  0.95602069  0.62746124  0.27710726    -0.73900
O1915       O  0.95115762  0.57182401  0.27451918    -0.73800
O1916       O  0.52851862  0.60130878  0.22376718    -0.73800
O1917       O  0.52282959  0.59923829  0.27742408    -0.73700
O1918       O  0.95624817  0.57346312  0.22139237    -0.73800
Ni1919     Ni  0.99322477  0.64356556  0.25027458     1.25400
Ni1920     Ni  0.98968607  0.58459408  0.24918942     1.25400
C1921       C  0.94584089  0.59616608  0.21313187     0.88500
C1922       C  0.53572685  0.63092252  0.28728340     0.88400
C1923       C  0.54119842  0.63295542  0.21462312     0.88400
C1924       C  0.94171000  0.59501162  0.28474826     0.88600
O1925       O  0.91004481  0.94179249  0.28041636    -0.73700
O1926       O  0.94191641  0.90203219  0.22337232    -0.73800
O1927       O  0.90982767  0.94516901  0.22713377    -0.73800
O1928       O  0.94172929  0.89754536  0.27627281    -0.73900
O1929       O  0.88757503  0.85116966  0.27622848    -0.73800
O1930       O  0.85650248  0.89790449  0.22590010    -0.73800
O1931       O  0.88897373  0.85412499  0.22254249    -0.73700
O1932       O  0.85586534  0.89572898  0.27952952    -0.73800
Ni1933     Ni  0.92771614  0.92328460  0.25191303     1.25400
Ni1934     Ni  0.87022724  0.87297868  0.25105542     1.25400
C1935       C  0.87812558  0.92540084  0.28971007     0.88500
C1936       C  0.92063701  0.87232101  0.21300080     0.88400
C1937       C  0.87846449  0.92862348  0.21750052     0.88400
C1938       C  0.91963505  0.86681243  0.28458411     0.88600
C1939       C  0.81419150  0.99426816  0.41973721     0.03000
C1940       C  0.82577324  0.53153907  0.41873132     0.03000
C1941       C  0.84442542  0.55026819  0.39630008    -0.17600
C1942       C  0.85163382  0.53240803  0.37468403     0.03000
C1943       C  0.84051880  0.99505271  0.37620198     0.03000
C1944       C  0.82168951  0.97651320  0.39845689    -0.17600
H1945       H  0.81310075  0.94788965  0.39928783     0.05000
H1946       H  0.85308878  0.57888394  0.39556261     0.05000
O1947       O  0.61292897  0.95471017  0.27760813    -0.73700
O1948       O  0.64663599  0.52453558  0.22233149    -0.73800
O1949       O  0.64585119  0.52680995  0.27669219    -0.73800
O1950       O  0.61426243  0.95258536  0.22358944    -0.73900
O1951       O  0.56007189  0.95211371  0.22496130    -0.73800
O1952       O  0.59322494  0.52955430  0.27548197    -0.73800
O1953       O  0.59233661  0.52349648  0.22170622    -0.73700
O1954       O  0.56056036  0.95808778  0.27844716    -0.73800
Ni1955     Ni  0.63191343  0.98967136  0.25007830     1.25400
Ni1956     Ni  0.57472603  0.99090537  0.25015433     1.25400
C1957       C  0.58139874  0.94582902  0.28761199     0.88500
C1958       C  0.62417474  0.53407079  0.21208041     0.88400
C1959       C  0.62445719  0.53983174  0.28517364     0.88400
C1960       C  0.58212265  0.94054779  0.21535556     0.88600
C1961       C  0.82434400  0.51844113  0.08544128     0.03000
C1962       C  0.81160627  0.98111474  0.08653112     0.03000
C1963       C  0.81954967  0.96626579  0.10845679    -0.17600
C1964       C  0.84016289  0.98802173  0.12909035     0.03000
C1965       C  0.85222405  0.52557082  0.12828857     0.03000
C1966       C  0.84440441  0.54027891  0.10622713    -0.17600
H1967       H  0.85395329  0.56900678  0.10526811     0.05000
H1968       H  0.81035315  0.93757119  0.10921929     0.05000
C1969       C  0.67567327  0.66260604  0.41698535     0.03000
C1970       C  0.65693770  0.68413671  0.41724507     0.03000
C1971       C  0.63444442  0.68124683  0.39619577    -0.17600
C1972       C  0.63047381  0.65754861  0.37486245     0.03000
C1973       C  0.65102119  0.63760055  0.37380661     0.03000
C1974       C  0.67294369  0.64006902  0.39514844    -0.17600
H1975       H  0.68817572  0.62439240  0.39468884     0.05000
H1976       H  0.61907548  0.69678785  0.39676703     0.05000
C1977       C  0.68123550  0.65367596  0.08107605     0.03000
C1978       C  0.66153468  0.67426546  0.08186901     0.03000
C1979       C  0.64015970  0.67308472  0.10414608    -0.17600
C1980       C  0.63701129  0.65103670  0.12552834     0.03000
C1981       C  0.65529355  0.62888480  0.12410499     0.03000
C1982       C  0.67776324  0.63109685  0.10218474    -0.17600
H1983       H  0.69196792  0.61443542  0.10128746     0.05000
H1984       H  0.62609442  0.68987989  0.10496296     0.05000
C1985       C  0.97813683  0.80095565  0.41291704     0.03000
C1986       C  0.51591192  0.81812118  0.41338169     0.03000
C1987       C  0.53523939  0.83954230  0.39219252    -0.17600
C1988       C  0.51748308  0.84428918  0.37064019     0.03000
C1989       C  0.97972243  0.82479746  0.36923542     0.03000
C1990       C  0.96056439  0.80352432  0.39049103    -0.17600
H1991       H  0.93153632  0.78965512  0.38987931     0.05000
H1992       H  0.56418638  0.85416765  0.39312013     0.05000
C1993       C  0.52494214  0.82117438  0.08295977     0.03000
C1994       C  0.98724381  0.80785388  0.08159769     0.03000
C1995       C  0.96796826  0.81325430  0.10295462    -0.17600
C1996       C  0.98549813  0.83242786  0.12530290     0.03000
C1997       C  0.52322093  0.84587347  0.12691848     0.03000
C1998       C  0.54251301  0.84004924  0.10559998    -0.17600
H1999       H  0.57146162  0.85059451  0.10656839     0.05000
H2000       H  0.93906629  0.80335566  0.10190634     0.05000
C2001       C  0.52797378  0.90066401  0.34830977    -0.12600
C2002       C  0.53786965  0.87273454  0.35148644     0.09500
C2003       C  0.56493236  0.87081975  0.33503933    -0.12600
C2004       C  0.58028393  0.89534542  0.31462390    -0.12600
C2005       C  0.56844351  0.92175683  0.31037701     0.09500
C2006       C  0.54274423  0.92461958  0.32779392    -0.12600
H2007       H  0.00759840  0.90296203  0.36109237     0.13500
H2008       H  0.57300446  0.84951441  0.33729442     0.13500
H2009       H  0.60022487  0.89276932  0.30153954     0.13500
H2010       H  0.53364384  0.94516288  0.32531974     0.13500
C2011       C  0.58318218  0.92602447  0.16772632    -0.12600
C2012       C  0.57083575  0.91455141  0.19339873     0.09500
C2013       C  0.54568296  0.87920830  0.19743552    -0.12600
C2014       C  0.53219540  0.85585254  0.17587843    -0.12600
C2015       C  0.54275919  0.86793678  0.14996062     0.09500
C2016       C  0.56914103  0.90293641  0.14613718    -0.12600
H2017       H  0.60240297  0.95338690  0.16432235     0.13500
H2018       H  0.53591455  0.86998885  0.21715832     0.13500
H2019       H  0.01216753  0.82885241  0.17931694     0.13500
H2020       H  0.57746876  0.91296309  0.12639066     0.13500
C2021       C  0.63358956  0.55363321  0.33318314    -0.12600
C2022       C  0.63512633  0.56567459  0.30737610     0.09500
C2023       C  0.64508100  0.60196112  0.30327009    -0.12600
C2024       C  0.65269439  0.62581773  0.32477531    -0.12600
C2025       C  0.64914810  0.61354104  0.35082248     0.09500
C2026       C  0.64042197  0.57732792  0.35474422    -0.12600
H2027       H  0.62579449  0.52561172  0.33668443     0.13500
H2028       H  0.64646676  0.61170857  0.28348363     0.13500
H2029       H  0.65989025  0.65367613  0.32115152     0.13500
H2030       H  0.63734721  0.56708349  0.37452506     0.13500
C2031       C  0.66937936  0.58047301  0.18205511    -0.12600
C2032       C  0.63381200  0.55641477  0.18822451     0.09500
C2033       C  0.60640846  0.55374302  0.17132656    -0.12600
C2034       C  0.61395965  0.57581805  0.14957690    -0.12600
C2035       C  0.64901106  0.60156402  0.14441204     0.09500
C2036       C  0.67692104  0.60303467  0.16029440    -0.12600
H2037       H  0.69103266  0.58279212  0.19458881     0.13500
H2038       H  0.57886194  0.53482490  0.17515081     0.13500
H2039       H  0.59213661  0.57389759  0.13736794     0.13500
H2040       H  0.70417820  0.62271423  0.15658211     0.13500
C2041       C  0.95746340  0.83850076  0.29994921    -0.12600
C2042       C  0.93082829  0.85017371  0.30513632     0.09500
C2043       C  0.91701712  0.84897190  0.33080706    -0.12600
C2044       C  0.93155270  0.83859599  0.35156118    -0.12600
C2045       C  0.95972884  0.82882255  0.34675957     0.09500
C2046       C  0.97129585  0.82708541  0.32061231    -0.12600
H2047       H  0.96816835  0.83917529  0.28011103     0.13500
H2048       H  0.89648344  0.85809343  0.33498466     0.13500
H2049       H  0.92227085  0.84027027  0.37151548     0.13500
H2050       H  0.49250348  0.81892885  0.31642619     0.13500
C2051       C  0.93907135  0.81476023  0.16157860    -0.12600
C2052       C  0.96446927  0.84132012  0.14559715     0.09500
C2053       C  0.97220986  0.87719251  0.15030918    -0.12600
C2054       C  0.95702262  0.88679768  0.17202352    -0.12600
C2055       C  0.93321779  0.86060210  0.18903227     0.09500
C2056       C  0.92329396  0.82440435  0.18327433    -0.12600
H2057       H  0.93280974  0.78690055  0.15795890     0.13500
H2058       H  0.99134101  0.89785795  0.13784395     0.13500
H2059       H  0.96444247  0.91487934  0.17582215     0.13500
H2060       H  0.90478962  0.80390576  0.19614123     0.13500
C2061       C  0.82273515  0.94689905  0.34167879    -0.12600
C2062       C  0.84978036  0.97492023  0.35544387     0.09500
C2063       C  0.88580819  0.98480685  0.34868224    -0.12600
C2064       C  0.89475195  0.96833032  0.32739996    -0.12600
C2065       C  0.86780730  0.94124662  0.31278372     0.09500
C2066       C  0.83170845  0.93007938  0.32040315    -0.12600
H2067       H  0.79475995  0.93892029  0.34688357     0.13500
H2068       H  0.90693935  0.50600119  0.35944662     0.13500
H2069       H  0.92285973  0.97705154  0.32228139     0.13500
H2070       H  0.81051485  0.90909775  0.30955764     0.13500
C2071       C  0.83225431  0.93116868  0.18801526    -0.12600
C2072       C  0.86829156  0.94416665  0.19529312     0.09500
C2073       C  0.89507304  0.97013504  0.17976020    -0.12600
C2074       C  0.88600042  0.98303925  0.15747813    -0.12600
C2075       C  0.84990849  0.97116982  0.15085441     0.09500
C2076       C  0.82311553  0.94473148  0.16600756    -0.12600
H2077       H  0.81114928  0.91075404  0.19944614     0.13500
H2078       H  0.92312657  0.97999738  0.18452524     0.13500
H2079       H  0.90710723  0.00294109  0.14570065     0.13500
H2080       H  0.79513472  0.93519226  0.16112330     0.13500
C2081       C  0.88190050  0.55496705  0.30351661    -0.12600
C2082       C  0.91537909  0.58410932  0.30665160     0.09500
C2083       C  0.92567635  0.59932258  0.33182113    -0.12600
C2084       C  0.90399141  0.58366496  0.35393675    -0.12600
C2085       C  0.87140119  0.55299461  0.35106463     0.09500
C2086       C  0.85961236  0.54020821  0.32547113    -0.12600
H2087       H  0.87355592  0.54293620  0.28419935     0.13500
H2088       H  0.95164513  0.62166991  0.33456981     0.13500
H2089       H  0.91367746  0.59421869  0.37336745     0.13500
H2090       H  0.83406518  0.01737488  0.32259963     0.13500
C2091       C  0.93085274  0.59440999  0.16575206    -0.12600
C2092       C  0.91960399  0.58479461  0.19191412     0.09500
C2093       C  0.88446702  0.55933303  0.19713428    -0.12600
C2094       C  0.86133780  0.54240289  0.17640495    -0.12600
C2095       C  0.87349491  0.54956871  0.15006154     0.09500
C2096       C  0.90793907  0.57686340  0.14491881    -0.12600
H2097       H  0.95808859  0.61369204  0.16139186     0.13500
H2098       H  0.87549835  0.55135699  0.21721331     0.13500
H2099       H  0.83474512  0.52185800  0.18088755     0.13500
H2100       H  0.91794234  0.58288457  0.12481285     0.13500
C2101       C  0.58247457  0.67404395  0.31773024    -0.12600
C2102       C  0.55850465  0.63891324  0.31077381     0.09500
C2103       C  0.55575356  0.61079380  0.32685376    -0.12600
C2104       C  0.57739569  0.61739361  0.34875638    -0.12600
C2105       C  0.60325695  0.65208569  0.35458704     0.09500
C2106       C  0.60488924  0.68056758  0.33941658    -0.12600
H2107       H  0.58472813  0.69625884  0.30591181     0.13500
H2108       H  0.53690978  0.58353191  0.32243555     0.13500
H2109       H  0.57509163  0.59511069  0.36053286     0.13500
H2110       H  0.62446834  0.70757536  0.34368774     0.13500
C2111       C  0.60238745  0.64674506  0.19639503    -0.12600
C2112       C  0.56736112  0.64243689  0.19259071     0.09500
C2113       C  0.55631458  0.64433532  0.16705711    -0.12600
C2114       C  0.57932424  0.64830285  0.14533581    -0.12600
C2115       C  0.61403491  0.65107108  0.14886406     0.09500
C2116       C  0.62585283  0.65202015  0.17476559    -0.12600
H2117       H  0.61138587  0.64556545  0.21602502     0.13500
H2118       H  0.52927770  0.64102633  0.16383373     0.13500
H2119       H  0.56945227  0.64771617  0.12571637     0.13500
H2120       H  0.65287663  0.65554246  0.17821602     0.13500
C2121       C  0.66423896  0.72061881  0.04597064    -0.12600
C2122       C  0.66328306  0.69797465  0.06087724    -0.14100
C2123       C  0.54680977  0.81721663  0.06156358    -0.12600
C2124       C  0.56780954  0.81706125  0.04457748    -0.14100
C2125       C  0.77253947  0.93353188  0.05064400    -0.12600
C2126       C  0.79070445  0.95717190  0.06569063    -0.14100
C2127       C  0.66052765  0.72995891  0.45622249    -0.12600
C2128       C  0.65964263  0.70894958  0.43883588    -0.14100
C2129       C  0.55908632  0.81873668  0.45054091    -0.12600
C2130       C  0.53619097  0.81591365  0.43529398    -0.14100
C2131       C  0.77130743  0.94899406  0.45469734    -0.12600
C2132       C  0.79274443  0.97239227  0.44112707    -0.14100
C2133       C  0.55611242  0.73324224  0.95540250    -0.12600
C2134       C  0.53316271  0.71360316  0.94075034    -0.14100
C2135       C  0.67922301  0.94180584  0.95144585    -0.12600
C2136       C  0.67932274  0.96264906  0.93536306    -0.14100
C2137       C  0.80363038  0.83823193  0.56145643    -0.12600
C2138       C  0.78249785  0.83881296  0.54563537    -0.14100
C2139       C  0.79267378  0.84464054  0.93977195    -0.12600
C2140       C  0.77226960  0.84461506  0.95745143    -0.14100
C2141       C  0.68173763  0.93190688  0.54303100    -0.12600
C2142       C  0.67909146  0.95124709  0.56036944    -0.14100
C2143       C  0.57074059  0.73194263  0.54785403    -0.12600
C2144       C  0.54649215  0.71446894  0.56274582    -0.14100
C2145       C  0.89386191  0.84446195  0.80426809    -0.12600
C2146       C  0.92943114  0.85069271  0.80828858     0.09500
C2147       C  0.94120602  0.85085759  0.83391179    -0.12600
C2148       C  0.91822997  0.84721675  0.85552225    -0.12600
C2149       C  0.88309881  0.84292345  0.85166944     0.09500
C2150       C  0.87055380  0.83972867  0.82582369    -0.12600
H2151       H  0.88453218  0.84443000  0.78453483     0.13500
H2152       H  0.96880370  0.85609776  0.83724262     0.13500
H2153       H  0.92848986  0.84975681  0.87524101     0.13500
H2154       H  0.84332141  0.83562522  0.82239590     0.13500
C2155       C  0.59977861  0.91629556  0.81574983    -0.12600
C2156       C  0.57432087  0.92848763  0.80887265     0.09500
C2157       C  0.57163753  0.95599857  0.82410399    -0.12600
C2158       C  0.59432686  0.97158920  0.84520924    -0.12600
C2159       C  0.62133042  0.96115211  0.85108278     0.09500
C2160       C  0.62328007  0.93267992  0.83660953    -0.12600
H2161       H  0.60212692  0.89480043  0.80459307     0.13500
H2162       H  0.55176301  0.96544262  0.81979537     0.13500
H2163       H  0.59137549  0.99260166  0.85660506     0.13500
H2164       H  0.64359909  0.92385254  0.84094900     0.13500
C2165       C  0.61274704  0.94221354  0.69542112    -0.12600
C2166       C  0.57646453  0.91969538  0.69151613     0.09500
C2167       C  0.56367832  0.91056698  0.66580378    -0.12600
C2168       C  0.58666157  0.92511558  0.64411341    -0.12600
C2169       C  0.62266021  0.94907078  0.64794323     0.09500
C2170       C  0.63582150  0.95655579  0.67373627    -0.12600
H2171       H  0.62290613  0.94951820  0.71519446     0.13500
H2172       H  0.53560967  0.89329589  0.66257135     0.13500
H2173       H  0.57592557  0.91928048  0.62443199     0.13500
H2174       H  0.66352552  0.47497547  0.67707381     0.13500
C2175       C  0.94164901  0.83827075  0.66820565    -0.12600
C2176       C  0.93023320  0.84301353  0.69371899     0.09500
C2177       C  0.89524126  0.83961406  0.69775452    -0.12600
C2178       C  0.87253596  0.83324689  0.67638703    -0.12600
C2179       C  0.88514906  0.83228427  0.65041311     0.09500
C2180       C  0.91937622  0.83318805  0.64667002    -0.12600
H2181       H  0.96870575  0.84111327  0.66471085     0.13500
H2182       H  0.88599087  0.84328001  0.71731539     0.13500
H2183       H  0.84589996  0.83148974  0.67998646     0.13500
H2184       H  0.92980381  0.83230055  0.62696654     0.13500
C2185       C  0.58614539  0.65845700  0.83288920    -0.12600
C2186       C  0.57477201  0.65838322  0.80718964     0.09500
C2187       C  0.54660777  0.66762041  0.80283616    -0.12600
C2188       C  0.52896500  0.67547571  0.82417941    -0.12600
C2189       C  0.53819672  0.67248657  0.85016561     0.09500
C2190       C  0.56782938  0.66519569  0.85426574    -0.12600
H2191       H  0.60748370  0.65074892  0.83650239     0.13500
H2192       H  0.53731950  0.66723562  0.78303677     0.13500
H2193       H  0.00680174  0.68188690  0.82046144     0.13500
H2194       H  0.57550426  0.66257985  0.87402602     0.13500
C2195       C  0.66189490  0.54944968  0.80238062    -0.12600
C2196       C  0.64727576  0.57366729  0.80787778     0.09500
C2197       C  0.64197261  0.58230504  0.83397476    -0.12600
C2198       C  0.64993377  0.56570484  0.85460524    -0.12600
C2199       C  0.66297664  0.54011861  0.84923046     0.09500
C2200       C  0.66998613  0.53286560  0.82304137    -0.12600
H2201       H  0.66578224  0.54248542  0.78218454     0.13500
H2202       H  0.63031857  0.60075583  0.83831223     0.13500
H2203       H  0.64423766  0.57145844  0.87470507     0.13500
H2204       H  0.68030037  0.51336017  0.81864421     0.13500
C2205       C  0.67188332  0.57030832  0.68375967    -0.12600
C2206       C  0.63628527  0.56081280  0.69202898     0.09500
C2207       C  0.60814505  0.53550894  0.67722640    -0.12600
C2208       C  0.61540909  0.51946330  0.65484863    -0.12600
C2209       C  0.65092858  0.52763455  0.64728258     0.09500
C2210       C  0.67916381  0.55361977  0.66157110    -0.12600
H2211       H  0.69396517  0.59005836  0.69470173     0.13500
H2212       H  0.58042409  0.52839157  0.68278132     0.13500
H2213       H  0.59329817  0.50004664  0.64372909     0.13500
H2214       H  0.70675708  0.56032101  0.65589403     0.13500
C2215       C  0.53315422  0.62346916  0.65242253    -0.12600
C2216       C  0.54179004  0.65924560  0.64724976     0.09500
C2217       C  0.56650271  0.68647442  0.66306432    -0.12600
C2218       C  0.58075873  0.67781802  0.68490235    -0.12600
C2219       C  0.56992694  0.64191030  0.69116173     0.09500
C2220       C  0.54664854  0.61483341  0.67449397    -0.12600
H2221       H  0.01458106  0.60222528  0.64007190     0.13500
H2222       H  0.57348892  0.71422432  0.65914828     0.13500
H2223       H  0.59913541  0.69900570  0.69738095     0.13500
H2224       H  0.53877989  0.58695338  0.67860395     0.13500
C2225       C  0.91776236  0.60536512  0.81596504    -0.12600
C2226       C  0.93164902  0.58065689  0.80939599     0.09500
C2227       C  0.95746290  0.57837659  0.82561578    -0.12600
C2228       C  0.97046608  0.60127137  0.84716534    -0.12600
C2229       C  0.95891235  0.62787517  0.85260819     0.09500
C2230       C  0.93152494  0.62907819  0.83746249    -0.12600
H2231       H  0.89742225  0.60720157  0.80398431     0.13500
H2232       H  0.96792834  0.55891403  0.82152301     0.13500
H2233       H  0.49076765  0.59917011  0.85905589     0.13500
H2234       H  0.92187880  0.64913322  0.84164189     0.13500
C2235       C  0.89763188  0.93978000  0.82523180    -0.12600
C2236       C  0.87077223  0.94001123  0.80904847     0.09500
C2237       C  0.83462269  0.91899928  0.81624973    -0.12600
C2238       C  0.82569834  0.89695216  0.83844103    -0.12600
C2239       C  0.85276319  0.89589068  0.85400059     0.09500
C2240       C  0.88872630  0.91848808  0.84760870    -0.12600
H2241       H  0.92567892  0.95625740  0.82067193     0.13500
H2242       H  0.81329747  0.91898393  0.80438212     0.13500
H2243       H  0.79778837  0.87980870  0.84290239     0.13500
H2244       H  0.91011090  0.91860567  0.85947227     0.13500
C2245       C  0.95836490  0.61888212  0.69734805    -0.12600
C2246       C  0.93338771  0.58363390  0.69240301     0.09500
C2247       C  0.92135544  0.57301465  0.66663526    -0.12600
C2248       C  0.93615726  0.59666886  0.64570825    -0.12600
C2249       C  0.96282673  0.63141883  0.65037335     0.09500
C2250       C  0.97223259  0.64286939  0.67659191    -0.12600
H2251       H  0.96773233  0.62757348  0.71716213     0.13500
H2252       H  0.90197452  0.54585279  0.66253520     0.13500
H2253       H  0.92834804  0.58717102  0.62575029     0.13500
H2254       H  0.49212070  0.66975947  0.68079242     0.13500
C2255       C  0.83784933  0.91576035  0.68302928    -0.12600
C2256       C  0.87364329  0.93689431  0.69001089     0.09500
C2257       C  0.90129322  0.93399383  0.67482962    -0.12600
C2258       C  0.89340544  0.91006639  0.65354270    -0.12600
C2259       C  0.85769526  0.88773617  0.64734230     0.09500
C2260       C  0.82992774  0.89126424  0.66187810    -0.12600
H2261       H  0.81602553  0.91764120  0.69423347     0.13500
H2262       H  0.92916816  0.95031954  0.67935956     0.13500
H2263       H  0.91523718  0.90822776  0.64229848     0.13500
H2264       H  0.80218494  0.87436833  0.65732852     0.13500
C2265       C  0.96630423  0.68366958  0.56354144    -0.12600
C2266       C  0.94310658  0.68155866  0.54884766    -0.14100
C2267       C  0.81975412  0.55158411  0.44034048    -0.12600
C2268       C  0.81757142  0.57049180  0.45803218    -0.14100
C2269       C  0.70722640  0.53107761  0.56059556    -0.12600
C2270       C  0.72856006  0.55444727  0.54692924    -0.14100
C2271       C  0.93184360  0.76598728  0.45061972    -0.12600
C2272       C  0.95590154  0.78211039  0.43513506    -0.14100
C2273       C  0.71966512  0.66359019  0.45445640    -0.12600
C2274       C  0.69844342  0.66326702  0.43840668    -0.14100
C2275       C  0.83979873  0.78994819  0.56075876    -0.12600
C2276       C  0.84062412  0.77031075  0.54297943    -0.14100
C2277       C  0.71157879  0.54195410  0.93565189    -0.12600
C2278       C  0.72901754  0.56620753  0.95033844    -0.14100
C2279       C  0.72576962  0.65496814  0.04161644    -0.12600
C2280       C  0.70515212  0.65496916  0.05911821    -0.14100
C2281       C  0.93192205  0.68211580  0.95614429    -0.12600
C2282       C  0.95274196  0.68176386  0.93905337    -0.14100
C2283       C  0.81875039  0.55679708  0.04726187    -0.12600
C2284       C  0.81845111  0.53584408  0.06324722    -0.14100
C2285       C  0.96650955  0.78747896  0.05950160    -0.12600
C2286       C  0.94362372  0.76672250  0.04531566    -0.14100
C2287       C  0.83360442  0.77866961  0.95499328    -0.12600
C2288       C  0.83365121  0.80073901  0.93987456    -0.14100
loop_ 
_geom_bond_atom_site_label_1 
_geom_bond_atom_site_label_2 
_geom_bond_distance 
_geom_bond_site_symmetry_2 
_ccdc_geom_bond_type 
O1           Ni7   1.928       .  S
O1           C22   1.268       .  A
O2          Ni25   1.928       .  S
O2           C11   1.276       .  A
O3           Ni7   1.906       .  S
O3          Ni25   1.908   1_554  S
O3          Ni19   1.911       .  S
O3           H26   0.965       .  S
C4           O21   1.272       .  A
C4           O13   1.277       .  A
C4          C562   1.435       .  S
O5          Ni24   1.923       .  S
O5           C11   1.269       .  A
O6          Ni24   1.914       .  S
O6            C8   1.267   1_556  A
Ni7          O10   1.916       .  S
Ni7          O12   1.901   1_554  S
C8           O18   1.272       .  A
C8          C563   1.446       .  S
O9          Ni25   1.934   1_554  S
O9           C15   1.282       .  A
O10          C15   1.275       .  A
C11         C571   1.442       .  S
O12          C14   1.265       .  A
O13         Ni24   1.926       .  S
C14          O20   1.274       .  A
C14         C565   1.438       .  S
C15         C570   1.437       .  S
H16          O17   0.970       .  S
O17         Ni25   1.922       .  S
O17         Ni19   1.898   1_556  S
O17         Ni24   1.904       .  S
O18         Ni19   1.936       .  S
Ni19         O23   1.900       .  S
Ni19         O21   1.917   1_554  S
O20         Ni25   1.940       .  S
C22          O23   1.263       .  A
C22         C567   1.428       .  S
O27         Ni33   1.921       .  S
O27          C48   1.268       .  A
O28         Ni51   1.902       .  S
O28          C37   1.264       .  A
O29         Ni33   1.910       .  S
O29         Ni51   1.901       .  S
O29         Ni45   1.921       .  S
O29          H52   0.969       .  S
C30          O47   1.279       .  A
C30          O39   1.273       .  A
C30         C554   1.438       .  S
O31         Ni50   1.933       .  S
O31          C37   1.269       .  A
O32         Ni50   1.898       .  S
O32          C34   1.265       .  A
Ni33         O36   1.927       .  S
Ni33         O38   1.911       .  S
C34          O44   1.272       .  A
C34         C552   1.431       .  S
O35         Ni51   1.921       .  S
O35          C41   1.273       .  A
O36          C41   1.276       .  A
C37         C550   1.433       .  S
O38          C40   1.266       .  A
O39         Ni50   1.920       .  S
C40          O46   1.272       .  A
C40         C560   1.441       .  S
C41         C555   1.439       .  S
H42          O43   0.964       .  S
O43         Ni51   1.914       .  S
O43         Ni45   1.917       .  S
O43         Ni50   1.914       .  S
O44         Ni45   1.933       .  S
Ni45         O49   1.928       .  S
Ni45         O47   1.928       .  S
O46         Ni51   1.932       .  S
C48          O49   1.273       .  A
C48         C557   1.443       .  S
O53         Ni61   1.923       .  S
O53          C63   1.281       .  A
O54        Ni633   1.926       .  S
O54          C64   1.282       .  A
O55         Ni61   1.935       .  S
O55          C65   1.284       .  A
O56        Ni633   1.931       .  S
O56          C66   1.284       .  A
O57        Ni634   1.908       .  S
O57          C66   1.280       .  A
O58         Ni62   1.896       .  S
O58          C65   1.278       .  A
O59        Ni634   1.924       .  S
O59          C64   1.284       .  A
O60         Ni62   1.922       .  S
O60          C63   1.282       .  A
Ni61        O626   1.926   1_545  S
Ni61        O628   1.931   1_545  S
Ni61        Ni62   2.388       .  S
Ni62        O629   1.908   1_545  S
Ni62        O631   1.924   1_545  S
C63         C530   1.471       .  S
C64         C520   1.489       .  S
C65         C510   1.476       .  S
C66         C540   1.482       .  S
O67         Ni75   1.900       .  S
O67          C77   1.279       .  A
O68         Ni75   1.904       .  S
O68          C78   1.278       .  A
O69         Ni75   1.897       .  S
O69          C79   1.279       .  A
O70         Ni75   1.905       .  S
O70          C80   1.278       .  A
O71         Ni76   1.911       .  S
O71          C80   1.278       .  A
O72         Ni76   1.912       .  S
O72          C79   1.280       .  A
O73         Ni76   1.923       .  S
O73          C78   1.281       .  A
O74         Ni76   1.923       .  S
O74          C77   1.283       .  A
Ni75        Ni76   2.395       .  S
C77         C490   1.471       .  S
C78         C470   1.460       .  S
C79         C503   1.461       .  S
C80         C480   1.452       .  S
O81         Ni89   1.914   1_455  S
O81          C91   1.282       .  A
O82       Ni1233   1.911       .  S
O82          C92   1.279       .  A
O83       Ni1233   1.907       .  S
O83          C93   1.279       .  A
O84         Ni89   1.917   1_455  S
O84          C94   1.281       .  A
O85         Ni90   1.918       .  S
O85          C94   1.280       .  A
O86       Ni1234   1.920       .  S
O86          C93   1.281       .  A
O87       Ni1234   1.934       .  S
O87          C92   1.284       .  A
O88         Ni90   1.932       .  S
O88          C91   1.284       .  A
Ni89       O1226   1.911       .  S
Ni89       O1227   1.907       .  S
Ni89        Ni90   2.391   1_655  S
Ni90       O1230   1.920   1_455  S
Ni90       O1231   1.934   1_455  S
C91         C440   1.485       .  S
C92         C460   1.472       .  S
C93         C430   1.461       .  S
C94         C450   1.465       .  S
C95         C549   1.440       .  S
C95         C100   1.406       .  A
C95        C1240   1.410       .  A
C96         C428   1.444       .  S
C96          C97   1.396       .  A
C96        C1239   1.410   1_455  A
C97          C98   1.397       .  A
C97         H102   1.085       .  S
C98         C500   1.471       .  S
C98        C1243   1.417   1_455  A
C99         C533   1.493       .  S
C99         C100   1.402       .  A
C99        C1242   1.417       .  A
C100        H101   1.085       .  S
C103        C553   1.446       .  S
C103        C108   1.399       .  A
C103        C676   1.415   1_545  A
C104        C426   1.449       .  S
C104        C105   1.405       .  A
C104        C675   1.415       .  A
C105        C106   1.404       .  A
C105        H110   1.085       .  S
C106        C453   1.484       .  S
C106        C679   1.416       .  A
C107        C493   1.479       .  S
C107        C108   1.398       .  A
C107        C678   1.416   1_545  A
C108        H109   1.085       .  S
C111        C423   1.454       .  S
C111        C112   1.415       .  A
C111        C116   1.412       .  A
C112        C572   1.451       .  S
C112        C113   1.398       .  A
C113        C114   1.401       .  A
C113        H118   1.085       .  S
C114        C433   1.485       .  S
C114        C115   1.420       .  A
C115        C523   1.497       .  S
C115        C116   1.411       .  A
C116        H117   1.084       .  S
C119        C559   1.449       .  S
C119        C120   1.414       .  A
C119        C124   1.405       .  A
C120        C421   1.455       .  S
C120        C121   1.403       .  A
C121        C122   1.406       .  A
C121        H126   1.085       .  S
C122        C543   1.486       .  S
C122        C123   1.422       .  A
C123        C463   1.498       .  S
C123        C124   1.406       .  A
C124        H125   1.085       .  S
C127        C420   1.441       .  S
C127        C132   1.408       .  A
C127        C700   1.407       .  A
C128        C561   1.442       .  S
C128        C129   1.392       .  A
C128        C699   1.407   1_545  A
C129        C130   1.397       .  A
C129        H134   1.086       .  S
C130        C483   1.473       .  S
C130        C703   1.418   1_545  A
C131        C443   1.492       .  S
C131        C132   1.406       .  A
C131        C702   1.418       .  A
C132        H133   1.084       .  S
C135        C566   1.445       .  S
C135        C140   1.404       .  A
C135       C1280   1.413       .  A
C136        C418   1.445       .  S
C136        C137   1.396       .  A
C136       C1279   1.413   1_455  A
C137        C138   1.399       .  A
C137        H142   1.085       .  S
C138        C473   1.489       .  S
C138       C1283   1.421   1_455  A
C139        C513   1.483       .  S
C139        C140   1.403       .  A
C139       C1282   1.421       .  A
C140        H141   1.085       .  S
O143       Ni149   1.934       .  S
O143        C164   1.270       .  A
O144       Ni167   1.931       .  S
O144        C153   1.275       .  A
O145       Ni149   1.911       .  S
O145       Ni167   1.915       .  S
O145       Ni161   1.913       .  S
O145        H168   0.966       .  S
C146        O163   1.273       .  A
C146        O155   1.277       .  A
C146        C427   1.437       .  S
O147       Ni166   1.923       .  S
O147        C153   1.269       .  A
O148       Ni166   1.917       .  S
O148        C150   1.268       .  A
Ni149       O152   1.920       .  S
Ni149       O154   1.904       .  S
C150        O160   1.272       .  A
C150        C411   1.449       .  S
O151       Ni167   1.930       .  S
O151        C157   1.280       .  A
O152        C157   1.274       .  A
C153        C422   1.446       .  S
O154        C156   1.267       .  A
O155       Ni166   1.927       .  S
C156        O162   1.275       .  A
C156        C425   1.441       .  S
C157        C415   1.437       .  S
H158        O159   0.969       .  S
O159       Ni167   1.920       .  S
O159       Ni161   1.899       .  S
O159       Ni166   1.906       .  S
O160       Ni161   1.937       .  S
Ni161       O165   1.901       .  S
Ni161       O163   1.920       .  S
O162       Ni167   1.942       .  S
C164        O165   1.263       .  A
C164        C413   1.434       .  S
O169       Ni175   1.925       .  S
O169        C190   1.269       .  A
O170       Ni193   1.909       .  S
O170        C179   1.265       .  A
O171       Ni175   1.911       .  S
O171       Ni193   1.906   1_554  S
O171       Ni187   1.924       .  S
O171        H194   0.970       .  S
C172        O189   1.281       .  A
C172        O181   1.273       .  A
C172        C417   1.436       .  S
O173       Ni192   1.923       .  S
O173        C179   1.266       .  A
O174       Ni192   1.900   1_554  S
O174        C176   1.265       .  A
Ni175       O178   1.927       .  S
Ni175       O180   1.914       .  S
C176        O186   1.273       .  A
C176        C408   1.437       .  S
O177       Ni193   1.929   1_554  S
O177        C183   1.276       .  A
O178        C183   1.276       .  A
C179        C419   1.432       .  S
O180        C182   1.267   1_554  A
O181       Ni192   1.913       .  S
C182        O188   1.272       .  A
C182        C424   1.447       .  S
C183        C409   1.444       .  S
H184        O185   0.966       .  S
O185       Ni193   1.917       .  S
O185       Ni187   1.911   1_556  S
O185       Ni192   1.911       .  S
O186       Ni187   1.936       .  S
Ni187       O191   1.924       .  S
Ni187       O189   1.935   1_554  S
O188       Ni193   1.936       .  S
C190        O191   1.273       .  A
C190        C405   1.441       .  S
O195       Ni203   1.931       .  S
O195        C205   1.283       .  A
O196      Ni1347   1.929   1_455  S
O196        C206   1.284       .  A
O197      Ni1347   1.922   1_455  S
O197        C207   1.281       .  A
O198       Ni203   1.924       .  S
O198        C208   1.281       .  A
O199       Ni204   1.912       .  S
O199        C208   1.280       .  A
O200      Ni1348   1.919   1_455  S
O200        C207   1.281       .  A
O201      Ni1348   1.911   1_455  S
O201        C206   1.281       .  A
O202       Ni204   1.909       .  S
O202        C205   1.279       .  A
Ni203      O1340   1.929       .  S
Ni203      O1341   1.922       .  S
Ni203      Ni204   2.390       .  S
Ni204      O1344   1.919       .  S
Ni204      O1345   1.911       .  S
C205        C376   1.469       .  S
C206        C386   1.481       .  S
C207        C396   1.469       .  S
C208        C366   1.467       .  S
O209       Ni217   1.892       .  S
O209        C219   1.277       .  A
O210       Ni217   1.884       .  S
O210        C220   1.276       .  A
O211       Ni217   1.912       .  S
O211        C221   1.282       .  A
O212       Ni217   1.913       .  S
O212        C222   1.280       .  A
O213       Ni218   1.910       .  S
O213        C222   1.278       .  A
O214       Ni218   1.910       .  S
O214        C221   1.280       .  A
O215       Ni218   1.925       .  S
O215        C220   1.283       .  A
O216       Ni218   1.922       .  S
O216        C219   1.283       .  A
Ni217      Ni218   2.392       .  S
C219        C349   1.469       .  S
C220        C339   1.462       .  S
C221        C356   1.472       .  S
C222        C326   1.458       .  S
C223        C416   1.445       .  S
C223        C228   1.393       .  A
C223        C796   1.411       .  A
C224        C551   1.439       .  S
C224        C225   1.404       .  A
C224        C795   1.411   1_545  A
C225        C226   1.404       .  A
C225        H230   1.085       .  S
C226        C369   1.492       .  S
C226        C799   1.419   1_545  A
C227        C346   1.470       .  S
C227        C228   1.396       .  A
C227        C798   1.419       .  A
C228        H229   1.086       .  S
O231       Ni239   1.932       .  S
O231        C241   1.284       .  A
O232       Ni811   1.935   1_545  S
O232        C242   1.285       .  A
O233       Ni811   1.924   1_545  S
O233        C243   1.281       .  A
O234       Ni239   1.920       .  S
O234        C244   1.280       .  A
O235       Ni240   1.921       .  S
O235        C244   1.281       .  A
O236       Ni812   1.923   1_545  S
O236        C243   1.282       .  A
O237       Ni812   1.907   1_545  S
O237        C242   1.280       .  A
O238       Ni240   1.904       .  S
O238        C241   1.279       .  A
Ni239       O804   1.935       .  S
Ni239       O805   1.924       .  S
Ni239      Ni240   2.389       .  S
Ni240       O808   1.923       .  S
Ni240       O809   1.907       .  S
C241        C289   1.477       .  S
C242        C316   1.482       .  S
C243        C306   1.473       .  S
C244        C296   1.468       .  S
C245        C568   1.436       .  S
C245        C250   1.405       .  A
C245        C818   1.408   1_545  A
C246        C410   1.452       .  S
C246        C247   1.400       .  A
C246        C817   1.408       .  A
C247        C248   1.405       .  A
C247        H252   1.085       .  S
C248        C359   1.478       .  S
C248        C821   1.419       .  A
C249        C379   1.493       .  S
C249        C250   1.400       .  A
C249        C820   1.419   1_545  A
C250        H251   1.085       .  S
C253        C558   1.451       .  S
C253        C254   1.415       .  A
C253        C258   1.406       .  A
C254        C412   1.457       .  S
C254        C255   1.406       .  A
C255        C256   1.408       .  A
C255        H260   1.084       .  S
C256        C389   1.488       .  S
C256        C257   1.421       .  A
C257        C309   1.497       .  S
C257        C258   1.406       .  A
C258        H259   1.085       .  S
C261        C564   1.454       .  S
C261        C262   1.414       .  A
C261        C266   1.406       .  A
C262        C406   1.449       .  S
C262        C263   1.402       .  A
C263        C264   1.405       .  A
C263        H268   1.085       .  S
C264        C399   1.496       .  S
C264        C265   1.422       .  A
C265        C319   1.486       .  S
C265        C266   1.407       .  A
C266        H267   1.085       .  S
C269        C556   1.446       .  S
C269        C274   1.399       .  A
C269       C1414   1.410       .  A
C270        C414   1.441       .  S
C270        C271   1.404       .  A
C270       C1413   1.410   1_455  A
C271        C272   1.400       .  A
C271        H276   1.085       .  S
C272        C286   1.484       .  S
C272       C1417   1.418   1_455  A
C273        C329   1.483       .  S
C273        C274   1.402       .  A
C273       C1416   1.418       .  A
C274        H275   1.085       .  S
C277        C407   1.444       .  S
C277        C282   1.404       .  A
C277       C1422   1.414   1_455  A
C278        C569   1.445       .  S
C278        C279   1.396       .  A
C278       C1421   1.414       .  A
C279        C280   1.395       .  A
C279        H284   1.086       .  S
C280        C336   1.469       .  S
C280       C1425   1.416       .  A
C281        C299   1.489       .  S
C281        C282   1.402       .  A
C281       C1424   1.416   1_455  A
C282        H283   1.085       .  S
C285        C286   1.402       .  A
C285        C290   1.392       .  A
C285       H1435   1.083       .  S
C286        C287   1.405       .  A
C287        C288   1.404       .  A
C287        H292   1.083       .  S
C288        C289   1.406       .  A
C288        H293   1.083       .  S
C289        C290   1.405       .  A
C290        H294   1.083       .  S
H291       C1429   1.083       .  S
C295        C296   1.402       .  A
C295        C300   1.399       .  A
C295        H301   1.084       .  S
C296        C297   1.401       .  A
C297        C298   1.400       .  A
C297        H302   1.083       .  S
C298        C299   1.408       .  A
C298       H1447   1.083       .  S
C299        C300   1.404       .  A
C300        H304   1.083       .  S
H303       C1442   1.083       .  S
C305        C306   1.404       .  A
C305        C310   1.402       .  A
C305        H311   1.084       .  S
C306        C307   1.400       .  A
C307        C308   1.401       .  A
C307        H312   1.083       .  S
C308        C309   1.410       .  A
C308        H313   1.083       .  S
C309        C310   1.406       .  A
C310        H314   1.083       .  S
C315        C316   1.406       .  A
C315        C320   1.406       .  A
C315        H321   1.083       .  S
C316        C317   1.406       .  A
C317        C318   1.394       .  A
C317        H322   1.083       .  S
C318        C319   1.402       .  A
C318        H323   1.083       .  S
C319        C320   1.407       .  A
C320        H324   1.083       .  S
C325        C326   1.399       .  A
C325        C330   1.396       .  A
C325        H331   1.083       .  S
C326        C327   1.400       .  A
C327        C328   1.394       .  A
C327        H332   1.084       .  S
C328        C329   1.404       .  A
C328        H333   1.083       .  S
C329        C330   1.407       .  A
C330       H1478   1.083       .  S
H334       C1474   1.083       .  S
C335        C336   1.404       .  A
C335        C340   1.399       .  A
C335        H341   1.083       .  S
C336        C337   1.398       .  A
C337        C338   1.385       .  A
C337        H342   1.084       .  S
C338        C339   1.404       .  A
C338        H343   1.084       .  S
C339        C340   1.402       .  A
C340        H344   1.083       .  S
C345        C346   1.404       .  A
C345        C350   1.397       .  A
C345        H351   1.083       .  S
C346        C347   1.398       .  A
C347        C348   1.388       .  A
C347        H924   1.084       .  S
C348        C349   1.406       .  A
C348        H353   1.083       .  S
C349        C350   1.404       .  A
C350        H354   1.083       .  S
H352        C919   1.084   1_545  S
C355        C356   1.406       .  A
C355        C360   1.397       .  A
C355        H361   1.083       .  S
C356        C357   1.404       .  A
C357        C358   1.392       .  A
C357        H362   1.083       .  S
C358        C359   1.403       .  A
C358        H363   1.083       .  S
C359        C360   1.402       .  A
C360        H364   1.083       .  S
C365        C366   1.400       .  A
C365        C370   1.397       .  A
C365        H371   1.083       .  S
C366        C367   1.403       .  A
C367        C368   1.400       .  A
C367        H372   1.083       .  S
C368        C369   1.406       .  A
C368        H373   1.083       .  S
C369        C370   1.408       .  A
C370        H946   1.082       .  S
H374        C942   1.082       .  S
C375        C376   1.403       .  A
C375        C380   1.403       .  A
C375        H381   1.083       .  S
C376        C377   1.401       .  A
C377        C378   1.398       .  A
C377        H382   1.083       .  S
C378        C379   1.407       .  A
C378        H383   1.083       .  S
C379        C380   1.407       .  A
C380        H384   1.083       .  S
C385        C386   1.407       .  A
C385        C390   1.404       .  A
C385        H391   1.083       .  S
C386        C387   1.405       .  A
C387        C388   1.394       .  A
C387        H392   1.083       .  S
C388        C389   1.404       .  A
C388        H393   1.083       .  S
C389        C390   1.405       .  A
C390        H394   1.083       .  S
C395        C396   1.400       .  A
C395        C400   1.400       .  A
C395        H401   1.083       .  S
C396        C397   1.402       .  A
C397        C398   1.399       .  A
C397        H402   1.083       .  S
C398        C399   1.407       .  A
C398        H403   1.083       .  S
C399        C400   1.409       .  A
C400        H404   1.082       .  S
C405        C406   1.210       .  T
C407        C408   1.207       .  T
C409        C410   1.211       .  T
C411        C412   1.214       .  T
C413        C414   1.205       .  T
C415        C416   1.208       .  T
C417        C418   1.208       .  T
C419        C420   1.204       .  T
C421        C422   1.213       .  T
C423        C424   1.213       .  T
C425        C426   1.210       .  T
C427        C428   1.207       .  T
C429        C430   1.400       .  A
C429        C434   1.396       .  A
C429        H435   1.083       .  S
C430        C431   1.401       .  A
C431        C432   1.396       .  A
C431        H436   1.084       .  S
C432        C433   1.405       .  A
C432        H437   1.083       .  S
C433        C434   1.406       .  A
C434        H438   1.083       .  S
C439        C440   1.408       .  A
C439        C444   1.407       .  A
C439        H445   1.083       .  S
C440        C441   1.405       .  A
C441        C442   1.394       .  A
C441        H446   1.083       .  S
C442        C443   1.404       .  A
C442        H447   1.083       .  S
C443        C444   1.406       .  A
C444        H448   1.083       .  S
C449        C450   1.400       .  A
C449        C454   1.399       .  A
C449        H455   1.083       .  S
C450        C451   1.402       .  A
C451        C452   1.398       .  A
C451        H456   1.083       .  S
C452        C453   1.403       .  A
C452        H457   1.083       .  S
C453        C454   1.407       .  A
C454       H1030   1.083       .  S
H458       C1026   1.083       .  S
C459        C460   1.403       .  A
C459        C464   1.402       .  A
C459        H465   1.083       .  S
C460        C461   1.402       .  A
C461        C462   1.399       .  A
C461        H466   1.083       .  S
C462        C463   1.409       .  A
C462        H467   1.083       .  S
C463        C464   1.408       .  A
C464        H468   1.083       .  S
C469        C470   1.399       .  A
C469        C474   1.395       .  A
C469        H475   1.083       .  S
C470        C471   1.401       .  A
C471        C472   1.397       .  A
C471        H476   1.083       .  S
C472        C473   1.407       .  A
C472       H1621   1.083       .  S
C473        C474   1.407       .  A
C474        H478   1.083       .  S
H477       C1616   1.083       .  S
C479        C480   1.400       .  A
C479        C484   1.395       .  A
C479        H485   1.083       .  S
C480        C481   1.398       .  A
C481        C482   1.392       .  A
C481        H486   1.083       .  S
C482        C483   1.403       .  A
C482        H487   1.083       .  S
C483        C484   1.404       .  A
C484        H488   1.083       .  S
C489        C490   1.403       .  A
C489        C494   1.399       .  A
C489        H495   1.083       .  S
C490        C491   1.405       .  A
C491        C492   1.391       .  A
C491        H496   1.083       .  S
C492        C493   1.401       .  A
C492        H497   1.083       .  S
C493        C494   1.404       .  A
C494        H498   1.083       .  S
C499        C500   1.401       .  A
C499        C504   1.388       .  A
C499       H1649   1.083       .  S
C500        C501   1.403       .  A
C501        C502   1.396       .  A
C501        H506   1.083       .  S
C502        C503   1.402       .  A
C502        H507   1.083       .  S
C503        C504   1.403       .  A
C504        H508   1.084       .  S
H505       C1643   1.083       .  S
C509        C510   1.406       .  A
C509        C514   1.406       .  A
C509        H515   1.083       .  S
C510        C511   1.404       .  A
C511        C512   1.388       .  A
C511        H516   1.083       .  S
C512        C513   1.400       .  A
C512       H1661   1.083       .  S
C513        C514   1.407       .  A
C514        H518   1.083       .  S
H517       C1656   1.083       .  S
C519        C520   1.405       .  A
C519        C524   1.398       .  A
C519        H525   1.083       .  S
C520        C521   1.409       .  A
C521        C522   1.407       .  A
C521        H526   1.083       .  S
C522        C523   1.406       .  A
C522        H527   1.083       .  S
C523        C524   1.406       .  A
C524        H528   1.083       .  S
C529        C530   1.400       .  A
C529        C534   1.399       .  A
C529        H535   1.083       .  S
C530        C531   1.403       .  A
C531        C532   1.401       .  A
C531        H536   1.083       .  S
C532        C533   1.406       .  A
C532        H537   1.083       .  S
C533        C534   1.408       .  A
C534       H1682   1.083       .  S
H538       C1678   1.083       .  S
C539        C540   1.406       .  A
C539        C544   1.403       .  A
C539        H545   1.083       .  S
C540        C541   1.406       .  A
C541        C542   1.394       .  A
C541        H546   1.083       .  S
C542        C543   1.403       .  A
C542        H547   1.083       .  S
C543        C544   1.405       .  A
C544        H548   1.083       .  S
C549        C550   1.205       .  T
C551        C552   1.204       .  T
C553        C554   1.208       .  T
C555        C556   1.208       .  T
C557        C558   1.211       .  T
C559        C560   1.210       .  T
C561        C562   1.206       .  T
C563        C564   1.213       .  T
C565        C566   1.208       .  T
C567        C568   1.202       .  T
C569        C570   1.208       .  T
C571        C572   1.211       .  T
O573       Ni579   1.928       .  S
O573        C594   1.268       .  A
O574       Ni597   1.928       .  S
O574        C583   1.276       .  A
O575       Ni579   1.906       .  S
O575       Ni597   1.908   1_554  S
O575       Ni591   1.911       .  S
O575        H598   0.965       .  S
C576        O593   1.272       .  A
C576        O585   1.277       .  A
C576       C1134   1.435       .  S
O577       Ni596   1.923       .  S
O577        C583   1.269       .  A
O578       Ni596   1.914       .  S
O578        C580   1.267   1_556  A
Ni579       O582   1.916       .  S
Ni579       O584   1.901   1_554  S
C580        O590   1.272       .  A
C580       C1135   1.446       .  S
O581       Ni597   1.934   1_554  S
O581        C587   1.282       .  A
O582        C587   1.275       .  A
C583       C1143   1.442       .  S
O584        C586   1.265       .  A
O585       Ni596   1.926       .  S
C586        O592   1.274       .  A
C586       C1137   1.438       .  S
C587       C1142   1.437       .  S
H588        O589   0.970       .  S
O589       Ni597   1.922       .  S
O589       Ni591   1.898   1_556  S
O589       Ni596   1.904       .  S
O590       Ni591   1.936       .  S
Ni591       O595   1.900       .  S
Ni591       O593   1.917   1_554  S
O592       Ni597   1.940       .  S
C594        O595   1.263       .  A
C594       C1139   1.428       .  S
O599       Ni605   1.921       .  S
O599        C620   1.268       .  A
O600       Ni623   1.902       .  S
O600        C609   1.264       .  A
O601       Ni605   1.910       .  S
O601       Ni623   1.901       .  S
O601       Ni617   1.921       .  S
O601        H624   0.969       .  S
C602        O619   1.279       .  A
C602        O611   1.273       .  A
C602       C1126   1.438       .  S
O603       Ni622   1.933       .  S
O603        C609   1.269       .  A
O604       Ni622   1.898       .  S
O604        C606   1.265       .  A
Ni605       O608   1.927       .  S
Ni605       O610   1.911       .  S
C606        O616   1.272       .  A
C606       C1124   1.431       .  S
O607       Ni623   1.921       .  S
O607        C613   1.273       .  A
O608        C613   1.276       .  A
C609       C1122   1.433       .  S
O610        C612   1.266       .  A
O611       Ni622   1.920       .  S
C612        O618   1.272       .  A
C612       C1132   1.441       .  S
C613       C1127   1.439       .  S
H614        O615   0.964       .  S
O615       Ni623   1.914       .  S
O615       Ni617   1.917       .  S
O615       Ni622   1.914       .  S
O616       Ni617   1.933       .  S
Ni617       O621   1.928       .  S
Ni617       O619   1.928       .  S
O618       Ni623   1.932       .  S
C620        O621   1.273       .  A
C620       C1129   1.443       .  S
O625       Ni633   1.923       .  S
O625        C635   1.281       .  A
O626        C636   1.282       .  A
O627       Ni633   1.935       .  S
O627        C637   1.284       .  A
O628        C638   1.284       .  A
O629        C638   1.280       .  A
O630       Ni634   1.896       .  S
O630        C637   1.278       .  A
O631        C636   1.284       .  A
O632       Ni634   1.922       .  S
O632        C635   1.282       .  A
Ni633      Ni634   2.388       .  S
C635       C1102   1.471       .  S
C636       C1092   1.489       .  S
C637       C1082   1.476       .  S
C638       C1112   1.482       .  S
O639       Ni647   1.900       .  S
O639        C649   1.279       .  A
O640       Ni647   1.904       .  S
O640        C650   1.278       .  A
O641       Ni647   1.897       .  S
O641        C651   1.279       .  A
O642       Ni647   1.905       .  S
O642        C652   1.278       .  A
O643       Ni648   1.911       .  S
O643        C652   1.278       .  A
O644       Ni648   1.912       .  S
O644        C651   1.280       .  A
O645       Ni648   1.923       .  S
O645        C650   1.281       .  A
O646       Ni648   1.923       .  S
O646        C649   1.283       .  A
Ni647      Ni648   2.395       .  S
C649       C1062   1.471       .  S
C650       C1042   1.460       .  S
C651       C1075   1.461       .  S
C652       C1052   1.452       .  S
O653       Ni661   1.914   1_455  S
O653        C663   1.282       .  A
O654      Ni1805   1.911       .  S
O654        C664   1.279       .  A
O655      Ni1805   1.907       .  S
O655        C665   1.279       .  A
O656       Ni661   1.917   1_455  S
O656        C666   1.281       .  A
O657       Ni662   1.918       .  S
O657        C666   1.280       .  A
O658      Ni1806   1.920       .  S
O658        C665   1.281       .  A
O659      Ni1806   1.934       .  S
O659        C664   1.284       .  A
O660       Ni662   1.932       .  S
O660        C663   1.284       .  A
Ni661      O1798   1.911       .  S
Ni661      O1799   1.907       .  S
Ni661      Ni662   2.391   1_655  S
Ni662      O1802   1.920   1_455  S
Ni662      O1803   1.934   1_455  S
C663       C1012   1.485       .  S
C664       C1032   1.472       .  S
C665       C1002   1.461       .  S
C666       C1022   1.465       .  S
C667       C1121   1.440       .  S
C667       C1812   1.410       .  A
C667        C672   1.406       .  A
C668       C1000   1.444       .  S
C668       C1811   1.410   1_455  A
C668        C669   1.396       .  A
C669        C670   1.397       .  A
C669        H674   1.085       .  S
C670       C1072   1.471       .  S
C670       C1815   1.417   1_455  A
C671       C1105   1.493       .  S
C671       C1814   1.417       .  A
C671        C672   1.402       .  A
C672        H673   1.085       .  S
C675       C1125   1.446       .  S
C675        C680   1.399       .  A
C676        C998   1.449       .  S
C676        C677   1.405       .  A
C677        C678   1.404       .  A
C677        H682   1.085       .  S
C678       C1025   1.484       .  S
C679       C1065   1.479       .  S
C679        C680   1.398       .  A
C680        H681   1.085       .  S
C683        C995   1.454       .  S
C683        C684   1.415       .  A
C683        C688   1.412       .  A
C684       C1144   1.451       .  S
C684        C685   1.398       .  A
C685        C686   1.401       .  A
C685        H690   1.085       .  S
C686       C1005   1.485       .  S
C686        C687   1.420       .  A
C687       C1095   1.497       .  S
C687        C688   1.411       .  A
C688        H689   1.084       .  S
C691       C1131   1.449       .  S
C691        C692   1.414       .  A
C691        C696   1.405       .  A
C692        C993   1.455       .  S
C692        C693   1.403       .  A
C693        C694   1.406       .  A
C693        H698   1.085       .  S
C694       C1115   1.486       .  S
C694        C695   1.422       .  A
C695       C1035   1.498       .  S
C695        C696   1.406       .  A
C696        H697   1.085       .  S
C699        C992   1.441       .  S
C699        C704   1.408       .  A
C700       C1133   1.442       .  S
C700        C701   1.392       .  A
C701        C702   1.397       .  A
C701        H706   1.086       .  S
C702       C1055   1.473       .  S
C703       C1015   1.492       .  S
C703        C704   1.406       .  A
C704        H705   1.084       .  S
C707       C1138   1.445       .  S
C707       C1852   1.413       .  A
C707        C712   1.404       .  A
C708        C990   1.445       .  S
C708       C1851   1.413   1_455  A
C708        C709   1.396       .  A
C709        C710   1.399       .  A
C709        H714   1.085       .  S
C710       C1045   1.489       .  S
C710       C1855   1.421   1_455  A
C711       C1085   1.483       .  S
C711       C1854   1.421       .  A
C711        C712   1.403       .  A
C712        H713   1.085       .  S
O715       Ni721   1.934       .  S
O715        C736   1.270       .  A
O716       Ni739   1.931       .  S
O716        C725   1.275       .  A
O717       Ni721   1.911       .  S
O717       Ni739   1.915       .  S
O717       Ni733   1.913       .  S
O717        H740   0.966       .  S
C718        O735   1.273       .  A
C718        O727   1.277       .  A
C718        C999   1.437       .  S
O719       Ni738   1.923       .  S
O719        C725   1.269       .  A
O720       Ni738   1.917       .  S
O720        C722   1.268       .  A
Ni721       O724   1.920       .  S
Ni721       O726   1.904       .  S
C722        O732   1.272       .  A
C722        C983   1.449       .  S
O723       Ni739   1.930       .  S
O723        C729   1.280       .  A
O724        C729   1.274       .  A
C725        C994   1.446       .  S
O726        C728   1.267       .  A
O727       Ni738   1.927       .  S
C728        O734   1.275       .  A
C728        C997   1.441       .  S
C729        C987   1.437       .  S
H730        O731   0.969       .  S
O731       Ni739   1.920       .  S
O731       Ni733   1.899       .  S
O731       Ni738   1.906       .  S
O732       Ni733   1.937       .  S
Ni733       O737   1.901       .  S
Ni733       O735   1.920       .  S
O734       Ni739   1.942       .  S
C736        O737   1.263       .  A
C736        C985   1.434       .  S
O741       Ni747   1.925       .  S
O741        C762   1.269       .  A
O742       Ni765   1.909       .  S
O742        C751   1.265       .  A
O743       Ni747   1.911       .  S
O743       Ni765   1.906   1_554  S
O743       Ni759   1.924       .  S
O743        H766   0.970       .  S
C744        O761   1.281       .  A
C744        O753   1.273       .  A
C744        C989   1.436       .  S
O745       Ni764   1.923       .  S
O745        C751   1.266       .  A
O746       Ni764   1.900   1_554  S
O746        C748   1.265       .  A
Ni747       O750   1.927       .  S
Ni747       O752   1.914       .  S
C748        O758   1.273       .  A
C748        C980   1.437       .  S
O749       Ni765   1.929   1_554  S
O749        C755   1.276       .  A
O750        C755   1.276       .  A
C751        C991   1.432       .  S
O752        C754   1.267   1_554  A
O753       Ni764   1.913       .  S
C754        O760   1.272       .  A
C754        C996   1.447       .  S
C755        C981   1.444       .  S
H756        O757   0.966       .  S
O757       Ni765   1.917       .  S
O757       Ni759   1.911   1_556  S
O757       Ni764   1.911       .  S
O758       Ni759   1.936       .  S
Ni759       O763   1.924       .  S
Ni759       O761   1.935   1_554  S
O760       Ni765   1.936       .  S
C762        O763   1.273       .  A
C762        C977   1.441       .  S
O767       Ni775   1.931       .  S
O767        C777   1.283       .  A
O768      Ni1919   1.929   1_455  S
O768        C778   1.284       .  A
O769      Ni1919   1.922   1_455  S
O769        C779   1.281       .  A
O770       Ni775   1.924       .  S
O770        C780   1.281       .  A
O771       Ni776   1.912       .  S
O771        C780   1.280       .  A
O772      Ni1920   1.919   1_455  S
O772        C779   1.281       .  A
O773      Ni1920   1.911   1_455  S
O773        C778   1.281       .  A
O774       Ni776   1.909       .  S
O774        C777   1.279       .  A
Ni775      O1912   1.929       .  S
Ni775      O1913   1.922       .  S
Ni775      Ni776   2.390       .  S
Ni776      O1916   1.919       .  S
Ni776      O1917   1.911       .  S
C777        C948   1.469       .  S
C778        C958   1.481       .  S
C779        C968   1.469       .  S
C780        C938   1.467       .  S
O781       Ni789   1.892       .  S
O781        C791   1.277       .  A
O782       Ni789   1.884       .  S
O782        C792   1.276       .  A
O783       Ni789   1.912       .  S
O783        C793   1.282       .  A
O784       Ni789   1.913       .  S
O784        C794   1.280       .  A
O785       Ni790   1.910       .  S
O785        C794   1.278       .  A
O786       Ni790   1.910       .  S
O786        C793   1.280       .  A
O787       Ni790   1.925       .  S
O787        C792   1.283       .  A
O788       Ni790   1.922       .  S
O788        C791   1.283       .  A
Ni789      Ni790   2.392       .  S
C791        C921   1.469       .  S
C792        C911   1.462       .  S
C793        C928   1.472       .  S
C794        C898   1.458       .  S
C795        C988   1.445       .  S
C795        C800   1.393       .  A
C796       C1123   1.439       .  S
C796        C797   1.404       .  A
C797        C798   1.404       .  A
C797        H802   1.085       .  S
C798        C941   1.492       .  S
C799        C918   1.470       .  S
C799        C800   1.396       .  A
C800        H801   1.086       .  S
O803       Ni811   1.932       .  S
O803        C813   1.284       .  A
O804        C814   1.285       .  A
O805        C815   1.281       .  A
O806       Ni811   1.920       .  S
O806        C816   1.280       .  A
O807       Ni812   1.921       .  S
O807        C816   1.281       .  A
O808        C815   1.282       .  A
O809        C814   1.280       .  A
O810       Ni812   1.904       .  S
O810        C813   1.279       .  A
Ni811      Ni812   2.389       .  S
C813        C861   1.477       .  S
C814        C888   1.482       .  S
C815        C878   1.473       .  S
C816        C868   1.468       .  S
C817       C1140   1.436       .  S
C817        C822   1.405       .  A
C818        C982   1.452       .  S
C818        C819   1.400       .  A
C819        C820   1.405       .  A
C819        H824   1.085       .  S
C820        C931   1.478       .  S
C821        C951   1.493       .  S
C821        C822   1.400       .  A
C822        H823   1.085       .  S
C825       C1130   1.451       .  S
C825        C826   1.415       .  A
C825        C830   1.406       .  A
C826        C984   1.457       .  S
C826        C827   1.406       .  A
C827        C828   1.408       .  A
C827        H832   1.084       .  S
C828        C961   1.488       .  S
C828        C829   1.421       .  A
C829        C881   1.497       .  S
C829        C830   1.406       .  A
C830        H831   1.085       .  S
C833       C1136   1.454       .  S
C833        C834   1.414       .  A
C833        C838   1.406       .  A
C834        C978   1.449       .  S
C834        C835   1.402       .  A
C835        C836   1.405       .  A
C835        H840   1.085       .  S
C836        C971   1.496       .  S
C836        C837   1.422       .  A
C837        C891   1.486       .  S
C837        C838   1.407       .  A
C838        H839   1.085       .  S
C841       C1128   1.446       .  S
C841       C1986   1.410       .  A
C841        C846   1.399       .  A
C842        C986   1.441       .  S
C842       C1985   1.410   1_455  A
C842        C843   1.404       .  A
C843        C844   1.400       .  A
C843        H848   1.085       .  S
C844        C858   1.484       .  S
C844       C1989   1.418   1_455  A
C845        C901   1.483       .  S
C845       C1988   1.418       .  A
C845        C846   1.402       .  A
C846        H847   1.085       .  S
C849        C979   1.444       .  S
C849       C1994   1.414   1_455  A
C849        C854   1.404       .  A
C850       C1141   1.445       .  S
C850       C1993   1.414       .  A
C850        C851   1.396       .  A
C851        C852   1.395       .  A
C851        H856   1.086       .  S
C852        C908   1.469       .  S
C852       C1997   1.416       .  A
C853        C871   1.489       .  S
C853       C1996   1.416   1_455  A
C853        C854   1.402       .  A
C854        H855   1.085       .  S
C857        C858   1.402       .  A
C857        C862   1.392       .  A
C857       H2007   1.083       .  S
C858        C859   1.405       .  A
C859        C860   1.404       .  A
C859        H864   1.083       .  S
C860        C861   1.406       .  A
C860        H865   1.083       .  S
C861        C862   1.405       .  A
C862        H866   1.083       .  S
H863       C2001   1.083       .  S
C867        C868   1.402       .  A
C867        C872   1.399       .  A
C867        H873   1.084       .  S
C868        C869   1.401       .  A
C869        C870   1.400       .  A
C869        H874   1.083       .  S
C870        C871   1.408       .  A
C870       H2019   1.083       .  S
C871        C872   1.404       .  A
C872        H876   1.083       .  S
H875       C2014   1.083       .  S
C877        C878   1.404       .  A
C877        C882   1.402       .  A
C877        H883   1.084       .  S
C878        C879   1.400       .  A
C879        C880   1.401       .  A
C879        H884   1.083       .  S
C880        C881   1.410       .  A
C880        H885   1.083       .  S
C881        C882   1.406       .  A
C882        H886   1.083       .  S
C887        C888   1.406       .  A
C887        C892   1.406       .  A
C887        H893   1.083       .  S
C888        C889   1.406       .  A
C889        C890   1.394       .  A
C889        H894   1.083       .  S
C890        C891   1.402       .  A
C890        H895   1.083       .  S
C891        C892   1.407       .  A
C892        H896   1.083       .  S
C897        C898   1.399       .  A
C897        C902   1.396       .  A
C897        H903   1.083       .  S
C898        C899   1.400       .  A
C899        C900   1.394       .  A
C899        H904   1.084       .  S
C900        C901   1.404       .  A
C900        H905   1.083       .  S
C901        C902   1.407       .  A
C902       H2050   1.083       .  S
H906       C2046   1.083       .  S
C907        C908   1.404       .  A
C907        C912   1.399       .  A
C907        H913   1.083       .  S
C908        C909   1.398       .  A
C909        C910   1.385       .  A
C909        H914   1.084       .  S
C910        C911   1.404       .  A
C910        H915   1.084       .  S
C911        C912   1.402       .  A
C912        H916   1.083       .  S
C917        C918   1.404       .  A
C917        C922   1.397       .  A
C917        H923   1.083       .  S
C918        C919   1.398       .  A
C919        C920   1.388       .  A
C920        C921   1.406       .  A
C920        H925   1.083       .  S
C921        C922   1.404       .  A
C922        H926   1.083       .  S
C927        C928   1.406       .  A
C927        C932   1.397       .  A
C927        H933   1.083       .  S
C928        C929   1.404       .  A
C929        C930   1.392       .  A
C929        H934   1.083       .  S
C930        C931   1.403       .  A
C930        H935   1.083   1_565  S
C931        C932   1.402       .  A
C932        H936   1.083       .  S
C937        C938   1.400       .  A
C937        C942   1.397       .  A
C937        H943   1.083       .  S
C938        C939   1.403       .  A
C939        C940   1.400       .  A
C939        H944   1.083       .  S
C940        C941   1.406       .  A
C940        H945   1.083       .  S
C941        C942   1.408       .  A
C947        C948   1.403       .  A
C947        C952   1.403       .  A
C947        H953   1.083       .  S
C948        C949   1.401       .  A
C949        C950   1.398       .  A
C949        H954   1.083       .  S
C950        C951   1.407       .  A
C950        H955   1.083       .  S
C951        C952   1.407       .  A
C952        H956   1.083       .  S
C957        C958   1.407       .  A
C957        C962   1.404       .  A
C957        H963   1.083       .  S
C958        C959   1.405       .  A
C959        C960   1.394       .  A
C959        H964   1.083       .  S
C960        C961   1.404       .  A
C960        H965   1.083       .  S
C961        C962   1.405       .  A
C962        H966   1.083       .  S
C967        C968   1.400       .  A
C967        C972   1.400       .  A
C967        H973   1.083       .  S
C968        C969   1.402       .  A
C969        C970   1.399       .  A
C969        H974   1.083       .  S
C970        C971   1.407       .  A
C970        H975   1.083       .  S
C971        C972   1.409       .  A
C972        H976   1.082       .  S
C977        C978   1.210       .  T
C979        C980   1.207       .  T
C981        C982   1.211       .  T
C983        C984   1.214       .  T
C985        C986   1.205       .  T
C987        C988   1.208       .  T
C989        C990   1.208       .  T
C991        C992   1.204       .  T
C993        C994   1.213       .  T
C995        C996   1.213       .  T
C997        C998   1.210       .  T
C999       C1000   1.207       .  T
C1001      C1002   1.400       .  A
C1001      C1006   1.396       .  A
C1001      H1007   1.083       .  S
C1002      C1003   1.401       .  A
C1003      C1004   1.396       .  A
C1003      H1008   1.084       .  S
C1004      C1005   1.405       .  A
C1004      H1009   1.083       .  S
C1005      C1006   1.406       .  A
C1006      H1010   1.083       .  S
C1011      C1012   1.408       .  A
C1011      C1016   1.407       .  A
C1011      H1017   1.083       .  S
C1012      C1013   1.405       .  A
C1013      C1014   1.394       .  A
C1013      H1018   1.083       .  S
C1014      C1015   1.404       .  A
C1014      H1019   1.083       .  S
C1015      C1016   1.406       .  A
C1016      H1020   1.083       .  S
C1021      C1022   1.400       .  A
C1021      C1026   1.399       .  A
C1021      H1027   1.083       .  S
C1022      C1023   1.402       .  A
C1023      C1024   1.398       .  A
C1023      H1028   1.083       .  S
C1024      C1025   1.403       .  A
C1024      H1029   1.083       .  S
C1025      C1026   1.407       .  A
C1031      C1032   1.403       .  A
C1031      C1036   1.402       .  A
C1031      H1037   1.083       .  S
C1032      C1033   1.402       .  A
C1033      C1034   1.399       .  A
C1033      H1038   1.083       .  S
C1034      C1035   1.409       .  A
C1034      H1039   1.083       .  S
C1035      C1036   1.408       .  A
C1036      H1040   1.083       .  S
C1041      C1042   1.399       .  A
C1041      C1046   1.395       .  A
C1041      H1047   1.083       .  S
C1042      C1043   1.401       .  A
C1043      C1044   1.397       .  A
C1043      H1048   1.083       .  S
C1044      C1045   1.407       .  A
C1044      H2193   1.083       .  S
C1045      C1046   1.407       .  A
C1046      H1050   1.083       .  S
H1049      C2188   1.083       .  S
C1051      C1052   1.400       .  A
C1051      C1056   1.395       .  A
C1051      H1057   1.083       .  S
C1052      C1053   1.398       .  A
C1053      C1054   1.392       .  A
C1053      H1058   1.083       .  S
C1054      C1055   1.403       .  A
C1054      H1059   1.083       .  S
C1055      C1056   1.404       .  A
C1056      H1060   1.083       .  S
C1061      C1062   1.403       .  A
C1061      C1066   1.399       .  A
C1061      H1067   1.083       .  S
C1062      C1063   1.405       .  A
C1063      C1064   1.391       .  A
C1063      H1068   1.083       .  S
C1064      C1065   1.401       .  A
C1064      H1069   1.083       .  S
C1065      C1066   1.404       .  A
C1066      H1070   1.083       .  S
C1071      C1072   1.401       .  A
C1071      C1076   1.388       .  A
C1071      H2221   1.083       .  S
C1072      C1073   1.403       .  A
C1073      C1074   1.396       .  A
C1073      H1078   1.083       .  S
C1074      C1075   1.402       .  A
C1074      H1079   1.083       .  S
C1075      C1076   1.403       .  A
C1076      H1080   1.084       .  S
H1077      C2215   1.083       .  S
C1081      C1082   1.406       .  A
C1081      C1086   1.406       .  A
C1081      H1087   1.083       .  S
C1082      C1083   1.404       .  A
C1083      C1084   1.388       .  A
C1083      H1088   1.083       .  S
C1084      C1085   1.400       .  A
C1084      H2233   1.083       .  S
C1085      C1086   1.407       .  A
C1086      H1090   1.083       .  S
H1089      C2228   1.083       .  S
C1091      C1092   1.405       .  A
C1091      C1096   1.398       .  A
C1091      H1097   1.083       .  S
C1092      C1093   1.409       .  A
C1093      C1094   1.407       .  A
C1093      H1098   1.083       .  S
C1094      C1095   1.406       .  A
C1094      H1099   1.083       .  S
C1095      C1096   1.406       .  A
C1096      H1100   1.083       .  S
C1101      C1102   1.400       .  A
C1101      C1106   1.399       .  A
C1101      H1107   1.083       .  S
C1102      C1103   1.403       .  A
C1103      C1104   1.401       .  A
C1103      H1108   1.083       .  S
C1104      C1105   1.406       .  A
C1104      H1109   1.083       .  S
C1105      C1106   1.408       .  A
C1106      H2254   1.083       .  S
H1110      C2250   1.083       .  S
C1111      C1112   1.406       .  A
C1111      C1116   1.403       .  A
C1111      H1117   1.083       .  S
C1112      C1113   1.406       .  A
C1113      C1114   1.394       .  A
C1113      H1118   1.083       .  S
C1114      C1115   1.403       .  A
C1114      H1119   1.083       .  S
C1115      C1116   1.405       .  A
C1116      H1120   1.083       .  S
C1121      C1122   1.205       .  T
C1123      C1124   1.204       .  T
C1125      C1126   1.208       .  T
C1127      C1128   1.208       .  T
C1129      C1130   1.211       .  T
C1131      C1132   1.210       .  T
C1133      C1134   1.206       .  T
C1135      C1136   1.213       .  T
C1137      C1138   1.208       .  T
C1139      C1140   1.202       .  T
C1141      C1142   1.208       .  T
C1143      C1144   1.211       .  T
O1145     Ni1151   1.928       .  S
O1145      C1166   1.268       .  A
O1146     Ni1169   1.928       .  S
O1146      C1155   1.276       .  A
O1147     Ni1151   1.906       .  S
O1147     Ni1169   1.908   1_554  S
O1147     Ni1163   1.911       .  S
O1147      H1170   0.965       .  S
C1148      O1165   1.272       .  A
C1148      O1157   1.277       .  A
C1148      C1706   1.435       .  S
O1149     Ni1168   1.923       .  S
O1149      C1155   1.269       .  A
O1150     Ni1168   1.914       .  S
O1150      C1152   1.267   1_556  A
Ni1151     O1154   1.916       .  S
Ni1151     O1156   1.901   1_554  S
C1152      O1162   1.272       .  A
C1152      C1707   1.446       .  S
O1153     Ni1169   1.934   1_554  S
O1153      C1159   1.282       .  A
O1154      C1159   1.275       .  A
C1155      C1715   1.442       .  S
O1156      C1158   1.265       .  A
O1157     Ni1168   1.926       .  S
C1158      O1164   1.274       .  A
C1158      C1709   1.438       .  S
C1159      C1714   1.437       .  S
H1160      O1161   0.970       .  S
O1161     Ni1169   1.922       .  S
O1161     Ni1163   1.898   1_556  S
O1161     Ni1168   1.904       .  S
O1162     Ni1163   1.936       .  S
Ni1163     O1167   1.900       .  S
Ni1163     O1165   1.917   1_554  S
O1164     Ni1169   1.940       .  S
C1166      O1167   1.263       .  A
C1166      C1711   1.428       .  S
O1171     Ni1177   1.921       .  S
O1171      C1192   1.268       .  A
O1172     Ni1195   1.902       .  S
O1172      C1181   1.264       .  A
O1173     Ni1177   1.910       .  S
O1173     Ni1195   1.901       .  S
O1173     Ni1189   1.921       .  S
O1173      H1196   0.969       .  S
C1174      O1191   1.279       .  A
C1174      O1183   1.273       .  A
C1174      C1698   1.438       .  S
O1175     Ni1194   1.933       .  S
O1175      C1181   1.269       .  A
O1176     Ni1194   1.898       .  S
O1176      C1178   1.265       .  A
Ni1177     O1180   1.927       .  S
Ni1177     O1182   1.911       .  S
C1178      O1188   1.272       .  A
C1178      C1696   1.431       .  S
O1179     Ni1195   1.921       .  S
O1179      C1185   1.273       .  A
O1180      C1185   1.276       .  A
C1181      C1694   1.433       .  S
O1182      C1184   1.266       .  A
O1183     Ni1194   1.920       .  S
C1184      O1190   1.272       .  A
C1184      C1704   1.441       .  S
C1185      C1699   1.439       .  S
H1186      O1187   0.964       .  S
O1187     Ni1195   1.914       .  S
O1187     Ni1189   1.917       .  S
O1187     Ni1194   1.914       .  S
O1188     Ni1189   1.933       .  S
Ni1189     O1193   1.928       .  S
Ni1189     O1191   1.928       .  S
O1190     Ni1195   1.932       .  S
C1192      O1193   1.273       .  A
C1192      C1701   1.443       .  S
O1197     Ni1205   1.923       .  S
O1197      C1207   1.281       .  A
O1198     Ni1777   1.926       .  S
O1198      C1208   1.282       .  A
O1199     Ni1205   1.935       .  S
O1199      C1209   1.284       .  A
O1200     Ni1777   1.931       .  S
O1200      C1210   1.284       .  A
O1201     Ni1778   1.908       .  S
O1201      C1210   1.280       .  A
O1202     Ni1206   1.896       .  S
O1202      C1209   1.278       .  A
O1203     Ni1778   1.924       .  S
O1203      C1208   1.284       .  A
O1204     Ni1206   1.922       .  S
O1204      C1207   1.282       .  A
Ni1205     O1770   1.926   1_545  S
Ni1205     O1772   1.931   1_545  S
Ni1205    Ni1206   2.388       .  S
Ni1206     O1773   1.908   1_545  S
Ni1206     O1775   1.924   1_545  S
C1207      C1674   1.471       .  S
C1208      C1664   1.489       .  S
C1209      C1654   1.476       .  S
C1210      C1684   1.482       .  S
O1211     Ni1219   1.900       .  S
O1211      C1221   1.279       .  A
O1212     Ni1219   1.904       .  S
O1212      C1222   1.278       .  A
O1213     Ni1219   1.897       .  S
O1213      C1223   1.279       .  A
O1214     Ni1219   1.905       .  S
O1214      C1224   1.278       .  A
O1215     Ni1220   1.911       .  S
O1215      C1224   1.278       .  A
O1216     Ni1220   1.912       .  S
O1216      C1223   1.280       .  A
O1217     Ni1220   1.923       .  S
O1217      C1222   1.281       .  A
O1218     Ni1220   1.923       .  S
O1218      C1221   1.283       .  A
Ni1219    Ni1220   2.395       .  S
C1221      C1634   1.471       .  S
C1222      C1614   1.460       .  S
C1223      C1647   1.461       .  S
C1224      C1624   1.452       .  S
O1225     Ni1233   1.914       .  S
O1225      C1235   1.282       .  A
O1226      C1236   1.279       .  A
O1227      C1237   1.279       .  A
O1228     Ni1233   1.917       .  S
O1228      C1238   1.281       .  A
O1229     Ni1234   1.918       .  S
O1229      C1238   1.280       .  A
O1230      C1237   1.281       .  A
O1231      C1236   1.284       .  A
O1232     Ni1234   1.932       .  S
O1232      C1235   1.284       .  A
Ni1233    Ni1234   2.391       .  S
C1235      C1584   1.485       .  S
C1236      C1604   1.472       .  S
C1237      C1574   1.461       .  S
C1238      C1594   1.465       .  S
C1239      C1693   1.440       .  S
C1239      C1244   1.406       .  A
C1240      C1572   1.444       .  S
C1240      C1241   1.396       .  A
C1241      C1242   1.397       .  A
C1241      H1246   1.085       .  S
C1242      C1644   1.471       .  S
C1243      C1677   1.493       .  S
C1243      C1244   1.402       .  A
C1244      H1245   1.085       .  S
C1247      C1697   1.446       .  S
C1247      C1820   1.415   1_545  A
C1247      C1252   1.399       .  A
C1248      C1570   1.449       .  S
C1248      C1819   1.415       .  A
C1248      C1249   1.405       .  A
C1249      C1250   1.404       .  A
C1249      H1254   1.085       .  S
C1250      C1597   1.484       .  S
C1250      C1823   1.416       .  A
C1251      C1637   1.479       .  S
C1251      C1822   1.416   1_545  A
C1251      C1252   1.398       .  A
C1252      H1253   1.085       .  S
C1255      C1567   1.454       .  S
C1255      C1256   1.415       .  A
C1255      C1260   1.412       .  A
C1256      C1716   1.451       .  S
C1256      C1257   1.398       .  A
C1257      C1258   1.401       .  A
C1257      H1262   1.085       .  S
C1258      C1577   1.485       .  S
C1258      C1259   1.420       .  A
C1259      C1667   1.497       .  S
C1259      C1260   1.411       .  A
C1260      H1261   1.084       .  S
C1263      C1703   1.449       .  S
C1263      C1264   1.414       .  A
C1263      C1268   1.405       .  A
C1264      C1565   1.455       .  S
C1264      C1265   1.403       .  A
C1265      C1266   1.406       .  A
C1265      H1270   1.085       .  S
C1266      C1687   1.486       .  S
C1266      C1267   1.422       .  A
C1267      C1607   1.498       .  S
C1267      C1268   1.406       .  A
C1268      H1269   1.085       .  S
C1271      C1564   1.441       .  S
C1271      C1844   1.407       .  A
C1271      C1276   1.408       .  A
C1272      C1705   1.442       .  S
C1272      C1843   1.407   1_545  A
C1272      C1273   1.392       .  A
C1273      C1274   1.397       .  A
C1273      H1278   1.086       .  S
C1274      C1627   1.473       .  S
C1274      C1847   1.418   1_545  A
C1275      C1587   1.492       .  S
C1275      C1846   1.418       .  A
C1275      C1276   1.406       .  A
C1276      H1277   1.084       .  S
C1279      C1710   1.445       .  S
C1279      C1284   1.404       .  A
C1280      C1562   1.445       .  S
C1280      C1281   1.396       .  A
C1281      C1282   1.399       .  A
C1281      H1286   1.085       .  S
C1282      C1617   1.489       .  S
C1283      C1657   1.483       .  S
C1283      C1284   1.403       .  A
C1284      H1285   1.085       .  S
O1287     Ni1293   1.934       .  S
O1287      C1308   1.270       .  A
O1288     Ni1311   1.931       .  S
O1288      C1297   1.275       .  A
O1289     Ni1293   1.911       .  S
O1289     Ni1311   1.915       .  S
O1289     Ni1305   1.913       .  S
O1289      H1312   0.966       .  S
C1290      O1307   1.273       .  A
C1290      O1299   1.277       .  A
C1290      C1571   1.437       .  S
O1291     Ni1310   1.923       .  S
O1291      C1297   1.269       .  A
O1292     Ni1310   1.917       .  S
O1292      C1294   1.268       .  A
Ni1293     O1296   1.920       .  S
Ni1293     O1298   1.904       .  S
C1294      O1304   1.272       .  A
C1294      C1555   1.449       .  S
O1295     Ni1311   1.930       .  S
O1295      C1301   1.280       .  A
O1296      C1301   1.274       .  A
C1297      C1566   1.446       .  S
O1298      C1300   1.267       .  A
O1299     Ni1310   1.927       .  S
C1300      O1306   1.275       .  A
C1300      C1569   1.441       .  S
C1301      C1559   1.437       .  S
H1302      O1303   0.969       .  S
O1303     Ni1311   1.920       .  S
O1303     Ni1305   1.899       .  S
O1303     Ni1310   1.906       .  S
O1304     Ni1305   1.937       .  S
Ni1305     O1309   1.901       .  S
Ni1305     O1307   1.920       .  S
O1306     Ni1311   1.942       .  S
C1308      O1309   1.263       .  A
C1308      C1557   1.434       .  S
O1313     Ni1319   1.925       .  S
O1313      C1334   1.269       .  A
O1314     Ni1337   1.909       .  S
O1314      C1323   1.265       .  A
O1315     Ni1319   1.911       .  S
O1315     Ni1337   1.906   1_554  S
O1315     Ni1331   1.924       .  S
O1315      H1338   0.970       .  S
C1316      O1333   1.281       .  A
C1316      O1325   1.273       .  A
C1316      C1561   1.436       .  S
O1317     Ni1336   1.923       .  S
O1317      C1323   1.266       .  A
O1318     Ni1336   1.900   1_554  S
O1318      C1320   1.265       .  A
Ni1319     O1322   1.927       .  S
Ni1319     O1324   1.914       .  S
C1320      O1330   1.273       .  A
C1320      C1552   1.437       .  S
O1321     Ni1337   1.929   1_554  S
O1321      C1327   1.276       .  A
O1322      C1327   1.276       .  A
C1323      C1563   1.432       .  S
O1324      C1326   1.267   1_554  A
O1325     Ni1336   1.913       .  S
C1326      O1332   1.272       .  A
C1326      C1568   1.447       .  S
C1327      C1553   1.444       .  S
H1328      O1329   0.966       .  S
O1329     Ni1337   1.917       .  S
O1329     Ni1331   1.911   1_556  S
O1329     Ni1336   1.911       .  S
O1330     Ni1331   1.936       .  S
Ni1331     O1335   1.924       .  S
Ni1331     O1333   1.935   1_554  S
O1332     Ni1337   1.936       .  S
C1334      O1335   1.273       .  A
C1334      C1549   1.441       .  S
O1339     Ni1347   1.931       .  S
O1339      C1349   1.283       .  A
O1340      C1350   1.284       .  A
O1341      C1351   1.281       .  A
O1342     Ni1347   1.924       .  S
O1342      C1352   1.281       .  A
O1343     Ni1348   1.912       .  S
O1343      C1352   1.280       .  A
O1344      C1351   1.281       .  A
O1345      C1350   1.281       .  A
O1346     Ni1348   1.909       .  S
O1346      C1349   1.279       .  A
Ni1347    Ni1348   2.390       .  S
C1349      C1520   1.469       .  S
C1350      C1530   1.481       .  S
C1351      C1540   1.469       .  S
C1352      C1510   1.467       .  S
O1353     Ni1361   1.892       .  S
O1353      C1363   1.277       .  A
O1354     Ni1361   1.884       .  S
O1354      C1364   1.276       .  A
O1355     Ni1361   1.912       .  S
O1355      C1365   1.282       .  A
O1356     Ni1361   1.913       .  S
O1356      C1366   1.280       .  A
O1357     Ni1362   1.910       .  S
O1357      C1366   1.278       .  A
O1358     Ni1362   1.910       .  S
O1358      C1365   1.280       .  A
O1359     Ni1362   1.925       .  S
O1359      C1364   1.283       .  A
O1360     Ni1362   1.922       .  S
O1360      C1363   1.283       .  A
Ni1361    Ni1362   2.392       .  S
C1363      C1493   1.469       .  S
C1364      C1483   1.462       .  S
C1365      C1500   1.472       .  S
C1366      C1470   1.458       .  S
C1367      C1560   1.445       .  S
C1367      C1940   1.411       .  A
C1367      C1372   1.393       .  A
C1368      C1695   1.439       .  S
C1368      C1939   1.411   1_545  A
C1368      C1369   1.404       .  A
C1369      C1370   1.404       .  A
C1369      H1374   1.085       .  S
C1370      C1513   1.492       .  S
C1370      C1943   1.419   1_545  A
C1371      C1490   1.470       .  S
C1371      C1942   1.419       .  A
C1371      C1372   1.396       .  A
C1372      H1373   1.086       .  S
O1375     Ni1383   1.932       .  S
O1375      C1385   1.284       .  A
O1376     Ni1955   1.935   1_545  S
O1376      C1386   1.285       .  A
O1377     Ni1955   1.924   1_545  S
O1377      C1387   1.281       .  A
O1378     Ni1383   1.920       .  S
O1378      C1388   1.280       .  A
O1379     Ni1384   1.921       .  S
O1379      C1388   1.281       .  A
O1380     Ni1956   1.923   1_545  S
O1380      C1387   1.282       .  A
O1381     Ni1956   1.907   1_545  S
O1381      C1386   1.280       .  A
O1382     Ni1384   1.904       .  S
O1382      C1385   1.279       .  A
Ni1383     O1948   1.935       .  S
Ni1383     O1949   1.924       .  S
Ni1383    Ni1384   2.389       .  S
Ni1384     O1952   1.923       .  S
Ni1384     O1953   1.907       .  S
C1385      C1433   1.477       .  S
C1386      C1460   1.482       .  S
C1387      C1450   1.473       .  S
C1388      C1440   1.468       .  S
C1389      C1712   1.436       .  S
C1389      C1962   1.408   1_545  A
C1389      C1394   1.405       .  A
C1390      C1554   1.452       .  S
C1390      C1961   1.408       .  A
C1390      C1391   1.400       .  A
C1391      C1392   1.405       .  A
C1391      H1396   1.085       .  S
C1392      C1503   1.478       .  S
C1392      C1965   1.419       .  A
C1393      C1523   1.493       .  S
C1393      C1964   1.419   1_545  A
C1393      C1394   1.400       .  A
C1394      H1395   1.085       .  S
C1397      C1702   1.451       .  S
C1397      C1398   1.415       .  A
C1397      C1402   1.406       .  A
C1398      C1556   1.457       .  S
C1398      C1399   1.406       .  A
C1399      C1400   1.408       .  A
C1399      H1404   1.084       .  S
C1400      C1533   1.488       .  S
C1400      C1401   1.421       .  A
C1401      C1453   1.497       .  S
C1401      C1402   1.406       .  A
C1402      H1403   1.085       .  S
C1405      C1708   1.454       .  S
C1405      C1406   1.414       .  A
C1405      C1410   1.406       .  A
C1406      C1550   1.449       .  S
C1406      C1407   1.402       .  A
C1407      C1408   1.405       .  A
C1407      H1412   1.085       .  S
C1408      C1543   1.496       .  S
C1408      C1409   1.422       .  A
C1409      C1463   1.486       .  S
C1409      C1410   1.407       .  A
C1410      H1411   1.085       .  S
C1413      C1700   1.446       .  S
C1413      C1418   1.399       .  A
C1414      C1558   1.441       .  S
C1414      C1415   1.404       .  A
C1415      C1416   1.400       .  A
C1415      H1420   1.085       .  S
C1416      C1430   1.484       .  S
C1417      C1473   1.483       .  S
C1417      C1418   1.402       .  A
C1418      H1419   1.085       .  S
C1421      C1551   1.444       .  S
C1421      C1426   1.404       .  A
C1422      C1713   1.445       .  S
C1422      C1423   1.396       .  A
C1423      C1424   1.395       .  A
C1423      H1428   1.086       .  S
C1424      C1480   1.469       .  S
C1425      C1443   1.489       .  S
C1425      C1426   1.402       .  A
C1426      H1427   1.085       .  S
C1429      C1430   1.402       .  A
C1429      C1434   1.392       .  A
C1430      C1431   1.405       .  A
C1431      C1432   1.404       .  A
C1431      H1436   1.083       .  S
C1432      C1433   1.406       .  A
C1432      H1437   1.083       .  S
C1433      C1434   1.405       .  A
C1434      H1438   1.083       .  S
C1439      C1440   1.402       .  A
C1439      C1444   1.399       .  A
C1439      H1445   1.084       .  S
C1440      C1441   1.401       .  A
C1441      C1442   1.400       .  A
C1441      H1446   1.083       .  S
C1442      C1443   1.408       .  A
C1443      C1444   1.404       .  A
C1444      H1448   1.083       .  S
C1449      C1450   1.404       .  A
C1449      C1454   1.402       .  A
C1449      H1455   1.084       .  S
C1450      C1451   1.400       .  A
C1451      C1452   1.401       .  A
C1451      H1456   1.083       .  S
C1452      C1453   1.410       .  A
C1452      H1457   1.083       .  S
C1453      C1454   1.406       .  A
C1454      H1458   1.083       .  S
C1459      C1460   1.406       .  A
C1459      C1464   1.406       .  A
C1459      H1465   1.083       .  S
C1460      C1461   1.406       .  A
C1461      C1462   1.394       .  A
C1461      H1466   1.083       .  S
C1462      C1463   1.402       .  A
C1462      H1467   1.083       .  S
C1463      C1464   1.407       .  A
C1464      H1468   1.083       .  S
C1469      C1470   1.399       .  A
C1469      C1474   1.396       .  A
C1469      H1475   1.083       .  S
C1470      C1471   1.400       .  A
C1471      C1472   1.394       .  A
C1471      H1476   1.084       .  S
C1472      C1473   1.404       .  A
C1472      H1477   1.083       .  S
C1473      C1474   1.407       .  A
C1479      C1480   1.404       .  A
C1479      C1484   1.399       .  A
C1479      H1485   1.083       .  S
C1480      C1481   1.398       .  A
C1481      C1482   1.385       .  A
C1481      H1486   1.084       .  S
C1482      C1483   1.404       .  A
C1482      H1487   1.084       .  S
C1483      C1484   1.402       .  A
C1484      H1488   1.083       .  S
C1489      C1490   1.404       .  A
C1489      C1494   1.397       .  A
C1489      H1495   1.083       .  S
C1490      C1491   1.398       .  A
C1491      C1492   1.388       .  A
C1491      H2068   1.084       .  S
C1492      C1493   1.406       .  A
C1492      H1497   1.083       .  S
C1493      C1494   1.404       .  A
C1494      H1498   1.083       .  S
H1496      C2063   1.084   1_545  S
C1499      C1500   1.406       .  A
C1499      C1504   1.397       .  A
C1499      H1505   1.083       .  S
C1500      C1501   1.404       .  A
C1501      C1502   1.392       .  A
C1501      H1506   1.083       .  S
C1502      C1503   1.403       .  A
C1502      H1507   1.083       .  S
C1503      C1504   1.402       .  A
C1504      H1508   1.083       .  S
C1509      C1510   1.400       .  A
C1509      C1514   1.397       .  A
C1509      H1515   1.083       .  S
C1510      C1511   1.403       .  A
C1511      C1512   1.400       .  A
C1511      H1516   1.083       .  S
C1512      C1513   1.406       .  A
C1512      H1517   1.083       .  S
C1513      C1514   1.408       .  A
C1514      H2090   1.082       .  S
H1518      C2086   1.082       .  S
C1519      C1520   1.403       .  A
C1519      C1524   1.403       .  A
C1519      H1525   1.083       .  S
C1520      C1521   1.401       .  A
C1521      C1522   1.398       .  A
C1521      H1526   1.083       .  S
C1522      C1523   1.407       .  A
C1522      H1527   1.083       .  S
C1523      C1524   1.407       .  A
C1524      H1528   1.083       .  S
C1529      C1530   1.407       .  A
C1529      C1534   1.404       .  A
C1529      H1535   1.083       .  S
C1530      C1531   1.405       .  A
C1531      C1532   1.394       .  A
C1531      H1536   1.083       .  S
C1532      C1533   1.404       .  A
C1532      H1537   1.083       .  S
C1533      C1534   1.405       .  A
C1534      H1538   1.083       .  S
C1539      C1540   1.400       .  A
C1539      C1544   1.400       .  A
C1539      H1545   1.083       .  S
C1540      C1541   1.402       .  A
C1541      C1542   1.399       .  A
C1541      H1546   1.083       .  S
C1542      C1543   1.407       .  A
C1542      H1547   1.083       .  S
C1543      C1544   1.409       .  A
C1544      H1548   1.082       .  S
C1549      C1550   1.210       .  T
C1551      C1552   1.207       .  T
C1553      C1554   1.211       .  T
C1555      C1556   1.214       .  T
C1557      C1558   1.205       .  T
C1559      C1560   1.208       .  T
C1561      C1562   1.208       .  T
C1563      C1564   1.204       .  T
C1565      C1566   1.213       .  T
C1567      C1568   1.213       .  T
C1569      C1570   1.210       .  T
C1571      C1572   1.207       .  T
C1573      C1574   1.400       .  A
C1573      C1578   1.396       .  A
C1573      H1579   1.083       .  S
C1574      C1575   1.401       .  A
C1575      C1576   1.396       .  A
C1575      H1580   1.084       .  S
C1576      C1577   1.405       .  A
C1576      H1581   1.083       .  S
C1577      C1578   1.406       .  A
C1578      H1582   1.083       .  S
C1583      C1584   1.408       .  A
C1583      C1588   1.407       .  A
C1583      H1589   1.083       .  S
C1584      C1585   1.405       .  A
C1585      C1586   1.394       .  A
C1585      H1590   1.083       .  S
C1586      C1587   1.404       .  A
C1586      H1591   1.083       .  S
C1587      C1588   1.406       .  A
C1588      H1592   1.083       .  S
C1593      C1594   1.400       .  A
C1593      C1598   1.399       .  A
C1593      H1599   1.083       .  S
C1594      C1595   1.402       .  A
C1595      C1596   1.398       .  A
C1595      H1600   1.083       .  S
C1596      C1597   1.403       .  A
C1596      H1601   1.083       .  S
C1597      C1598   1.407       .  A
C1598      H2174   1.083       .  S
H1602      C2170   1.083       .  S
C1603      C1604   1.403       .  A
C1603      C1608   1.402       .  A
C1603      H1609   1.083       .  S
C1604      C1605   1.402       .  A
C1605      C1606   1.399       .  A
C1605      H1610   1.083       .  S
C1606      C1607   1.409       .  A
C1606      H1611   1.083       .  S
C1607      C1608   1.408       .  A
C1608      H1612   1.083       .  S
C1613      C1614   1.399       .  A
C1613      C1618   1.395       .  A
C1613      H1619   1.083       .  S
C1614      C1615   1.401       .  A
C1615      C1616   1.397       .  A
C1615      H1620   1.083       .  S
C1616      C1617   1.407       .  A
C1617      C1618   1.407       .  A
C1618      H1622   1.083       .  S
C1623      C1624   1.400       .  A
C1623      C1628   1.395       .  A
C1623      H1629   1.083       .  S
C1624      C1625   1.398       .  A
C1625      C1626   1.392       .  A
C1625      H1630   1.083       .  S
C1626      C1627   1.403       .  A
C1626      H1631   1.083       .  S
C1627      C1628   1.404       .  A
C1628      H1632   1.083       .  S
C1633      C1634   1.403       .  A
C1633      C1638   1.399       .  A
C1633      H1639   1.083       .  S
C1634      C1635   1.405       .  A
C1635      C1636   1.391       .  A
C1635      H1640   1.083       .  S
C1636      C1637   1.401       .  A
C1636      H1641   1.083       .  S
C1637      C1638   1.404       .  A
C1638      H1642   1.083       .  S
C1643      C1644   1.401       .  A
C1643      C1648   1.388       .  A
C1644      C1645   1.403       .  A
C1645      C1646   1.396       .  A
C1645      H1650   1.083       .  S
C1646      C1647   1.402       .  A
C1646      H1651   1.083       .  S
C1647      C1648   1.403       .  A
C1648      H1652   1.084       .  S
C1653      C1654   1.406       .  A
C1653      C1658   1.406       .  A
C1653      H1659   1.083       .  S
C1654      C1655   1.404       .  A
C1655      C1656   1.388       .  A
C1655      H1660   1.083       .  S
C1656      C1657   1.400       .  A
C1657      C1658   1.407       .  A
C1658      H1662   1.083       .  S
C1663      C1664   1.405       .  A
C1663      C1668   1.398       .  A
C1663      H1669   1.083       .  S
C1664      C1665   1.409       .  A
C1665      C1666   1.407       .  A
C1665      H1670   1.083       .  S
C1666      C1667   1.406       .  A
C1666      H1671   1.083       .  S
C1667      C1668   1.406       .  A
C1668      H1672   1.083       .  S
C1673      C1674   1.400       .  A
C1673      C1678   1.399       .  A
C1673      H1679   1.083       .  S
C1674      C1675   1.403       .  A
C1675      C1676   1.401       .  A
C1675      H1680   1.083       .  S
C1676      C1677   1.406       .  A
C1676      H1681   1.083       .  S
C1677      C1678   1.408       .  A
C1683      C1684   1.406       .  A
C1683      C1688   1.403       .  A
C1683      H1689   1.083       .  S
C1684      C1685   1.406       .  A
C1685      C1686   1.394       .  A
C1685      H1690   1.083       .  S
C1686      C1687   1.403       .  A
C1686      H1691   1.083       .  S
C1687      C1688   1.405       .  A
C1688      H1692   1.083       .  S
C1693      C1694   1.205       .  T
C1695      C1696   1.204       .  T
C1697      C1698   1.208       .  T
C1699      C1700   1.208       .  T
C1701      C1702   1.211       .  T
C1703      C1704   1.210       .  T
C1705      C1706   1.206       .  T
C1707      C1708   1.213       .  T
C1709      C1710   1.208       .  T
C1711      C1712   1.202       .  T
C1713      C1714   1.208       .  T
C1715      C1716   1.211       .  T
O1717     Ni1723   1.928       .  S
O1717      C1738   1.268       .  A
O1718     Ni1741   1.928       .  S
O1718      C1727   1.276       .  A
O1719     Ni1723   1.906       .  S
O1719     Ni1741   1.908   1_554  S
O1719     Ni1735   1.911       .  S
O1719      H1742   0.965       .  S
C1720      O1737   1.272       .  A
C1720      O1729   1.277       .  A
C1720      C2278   1.435       .  S
O1721     Ni1740   1.923       .  S
O1721      C1727   1.269       .  A
O1722     Ni1740   1.914       .  S
O1722      C1724   1.267   1_556  A
Ni1723     O1726   1.916       .  S
Ni1723     O1728   1.901   1_554  S
C1724      O1734   1.272       .  A
C1724      C2279   1.446       .  S
O1725     Ni1741   1.934   1_554  S
O1725      C1731   1.282       .  A
O1726      C1731   1.275       .  A
C1727      C2287   1.442       .  S
O1728      C1730   1.265       .  A
O1729     Ni1740   1.926       .  S
C1730      O1736   1.274       .  A
C1730      C2281   1.438       .  S
C1731      C2286   1.437       .  S
H1732      O1733   0.970       .  S
O1733     Ni1741   1.922       .  S
O1733     Ni1735   1.898   1_556  S
O1733     Ni1740   1.904       .  S
O1734     Ni1735   1.936       .  S
Ni1735     O1739   1.900       .  S
Ni1735     O1737   1.917   1_554  S
O1736     Ni1741   1.940       .  S
C1738      O1739   1.263       .  A
C1738      C2283   1.428       .  S
O1743     Ni1749   1.921       .  S
O1743      C1764   1.268       .  A
O1744     Ni1767   1.902       .  S
O1744      C1753   1.264       .  A
O1745     Ni1749   1.910       .  S
O1745     Ni1767   1.901       .  S
O1745     Ni1761   1.921       .  S
O1745      H1768   0.969       .  S
C1746      O1763   1.279       .  A
C1746      O1755   1.273       .  A
C1746      C2270   1.438       .  S
O1747     Ni1766   1.933       .  S
O1747      C1753   1.269       .  A
O1748     Ni1766   1.898       .  S
O1748      C1750   1.265       .  A
Ni1749     O1752   1.927       .  S
Ni1749     O1754   1.911       .  S
C1750      O1760   1.272       .  A
C1750      C2268   1.431       .  S
O1751     Ni1767   1.921       .  S
O1751      C1757   1.273       .  A
O1752      C1757   1.276       .  A
C1753      C2266   1.433       .  S
O1754      C1756   1.266       .  A
O1755     Ni1766   1.920       .  S
C1756      O1762   1.272       .  A
C1756      C2276   1.441       .  S
C1757      C2271   1.439       .  S
H1758      O1759   0.964       .  S
O1759     Ni1767   1.914       .  S
O1759     Ni1761   1.917       .  S
O1759     Ni1766   1.914       .  S
O1760     Ni1761   1.933       .  S
Ni1761     O1765   1.928       .  S
Ni1761     O1763   1.928       .  S
O1762     Ni1767   1.932       .  S
C1764      O1765   1.273       .  A
C1764      C2273   1.443       .  S
O1769     Ni1777   1.923       .  S
O1769      C1779   1.281       .  A
O1770      C1780   1.282       .  A
O1771     Ni1777   1.935       .  S
O1771      C1781   1.284       .  A
O1772      C1782   1.284       .  A
O1773      C1782   1.280       .  A
O1774     Ni1778   1.896       .  S
O1774      C1781   1.278       .  A
O1775      C1780   1.284       .  A
O1776     Ni1778   1.922       .  S
O1776      C1779   1.282       .  A
Ni1777    Ni1778   2.388       .  S
C1779      C2246   1.471       .  S
C1780      C2236   1.489       .  S
C1781      C2226   1.476       .  S
C1782      C2256   1.482       .  S
O1783     Ni1791   1.900       .  S
O1783      C1793   1.279       .  A
O1784     Ni1791   1.904       .  S
O1784      C1794   1.278       .  A
O1785     Ni1791   1.897       .  S
O1785      C1795   1.279       .  A
O1786     Ni1791   1.905       .  S
O1786      C1796   1.278       .  A
O1787     Ni1792   1.911       .  S
O1787      C1796   1.278       .  A
O1788     Ni1792   1.912       .  S
O1788      C1795   1.280       .  A
O1789     Ni1792   1.923       .  S
O1789      C1794   1.281       .  A
O1790     Ni1792   1.923       .  S
O1790      C1793   1.283       .  A
Ni1791    Ni1792   2.395       .  S
C1793      C2206   1.471       .  S
C1794      C2186   1.460       .  S
C1795      C2219   1.461       .  S
C1796      C2196   1.452       .  S
O1797     Ni1805   1.914       .  S
O1797      C1807   1.282       .  A
O1798      C1808   1.279       .  A
O1799      C1809   1.279       .  A
O1800     Ni1805   1.917       .  S
O1800      C1810   1.281       .  A
O1801     Ni1806   1.918       .  S
O1801      C1810   1.280       .  A
O1802      C1809   1.281       .  A
O1803      C1808   1.284       .  A
O1804     Ni1806   1.932       .  S
O1804      C1807   1.284       .  A
Ni1805    Ni1806   2.391       .  S
C1807      C2156   1.485       .  S
C1808      C2176   1.472       .  S
C1809      C2146   1.461       .  S
C1810      C2166   1.465       .  S
C1811      C2265   1.440       .  S
C1811      C1816   1.406       .  A
C1812      C2144   1.444       .  S
C1812      C1813   1.396       .  A
C1813      C1814   1.397       .  A
C1813      H1818   1.085       .  S
C1814      C2216   1.471       .  S
C1815      C2249   1.493       .  S
C1815      C1816   1.402       .  A
C1816      H1817   1.085       .  S
C1819      C2269   1.446       .  S
C1819      C1824   1.399       .  A
C1820      C2142   1.449       .  S
C1820      C1821   1.405       .  A
C1821      C1822   1.404       .  A
C1821      H1826   1.085       .  S
C1822      C2169   1.484       .  S
C1823      C2209   1.479       .  S
C1823      C1824   1.398       .  A
C1824      H1825   1.085       .  S
C1827      C2139   1.454       .  S
C1827      C1828   1.415       .  A
C1827      C1832   1.412       .  A
C1828      C2288   1.451       .  S
C1828      C1829   1.398       .  A
C1829      C1830   1.401       .  A
C1829      H1834   1.085       .  S
C1830      C2149   1.485       .  S
C1830      C1831   1.420       .  A
C1831      C2239   1.497       .  S
C1831      C1832   1.411       .  A
C1832      H1833   1.084       .  S
C1835      C2275   1.449       .  S
C1835      C1836   1.414       .  A
C1835      C1840   1.405       .  A
C1836      C2137   1.455       .  S
C1836      C1837   1.403       .  A
C1837      C1838   1.406       .  A
C1837      H1842   1.085       .  S
C1838      C2259   1.486       .  S
C1838      C1839   1.422       .  A
C1839      C2179   1.498       .  S
C1839      C1840   1.406       .  A
C1840      H1841   1.085       .  S
C1843      C2136   1.441       .  S
C1843      C1848   1.408       .  A
C1844      C2277   1.442       .  S
C1844      C1845   1.392       .  A
C1845      C1846   1.397       .  A
C1845      H1850   1.086       .  S
C1846      C2199   1.473       .  S
C1847      C2159   1.492       .  S
C1847      C1848   1.406       .  A
C1848      H1849   1.084       .  S
C1851      C2282   1.445       .  S
C1851      C1856   1.404       .  A
C1852      C2134   1.445       .  S
C1852      C1853   1.396       .  A
C1853      C1854   1.399       .  A
C1853      H1858   1.085       .  S
C1854      C2189   1.489       .  S
C1855      C2229   1.483       .  S
C1855      C1856   1.403       .  A
C1856      H1857   1.085       .  S
O1859     Ni1865   1.934       .  S
O1859      C1880   1.270       .  A
O1860     Ni1883   1.931       .  S
O1860      C1869   1.275       .  A
O1861     Ni1865   1.911       .  S
O1861     Ni1883   1.915       .  S
O1861     Ni1877   1.913       .  S
O1861      H1884   0.966       .  S
C1862      O1879   1.273       .  A
C1862      O1871   1.277       .  A
C1862      C2143   1.437       .  S
O1863     Ni1882   1.923       .  S
O1863      C1869   1.269       .  A
O1864     Ni1882   1.917       .  S
O1864      C1866   1.268       .  A
Ni1865     O1868   1.920       .  S
Ni1865     O1870   1.904       .  S
C1866      O1876   1.272       .  A
C1866      C2127   1.449       .  S
O1867     Ni1883   1.930       .  S
O1867      C1873   1.280       .  A
O1868      C1873   1.274       .  A
C1869      C2138   1.446       .  S
O1870      C1872   1.267       .  A
O1871     Ni1882   1.927       .  S
C1872      O1878   1.275       .  A
C1872      C2141   1.441       .  S
C1873      C2131   1.437       .  S
H1874      O1875   0.969       .  S
O1875     Ni1883   1.920       .  S
O1875     Ni1877   1.899       .  S
O1875     Ni1882   1.906       .  S
O1876     Ni1877   1.937       .  S
Ni1877     O1881   1.901       .  S
Ni1877     O1879   1.920       .  S
O1878     Ni1883   1.942       .  S
C1880      O1881   1.263       .  A
C1880      C2129   1.434       .  S
O1885     Ni1891   1.925       .  S
O1885      C1906   1.269       .  A
O1886     Ni1909   1.909       .  S
O1886      C1895   1.265       .  A
O1887     Ni1891   1.911       .  S
O1887     Ni1909   1.906   1_554  S
O1887     Ni1903   1.924       .  S
O1887      H1910   0.970       .  S
C1888      O1905   1.281       .  A
C1888      O1897   1.273       .  A
C1888      C2133   1.436       .  S
O1889     Ni1908   1.923       .  S
O1889      C1895   1.266       .  A
O1890     Ni1908   1.900   1_554  S
O1890      C1892   1.265       .  A
Ni1891     O1894   1.927       .  S
Ni1891     O1896   1.914       .  S
C1892      O1902   1.273       .  A
C1892      C2124   1.437       .  S
O1893     Ni1909   1.929   1_554  S
O1893      C1899   1.276       .  A
O1894      C1899   1.276       .  A
C1895      C2135   1.432       .  S
O1896      C1898   1.267   1_554  A
O1897     Ni1908   1.913       .  S
C1898      O1904   1.272       .  A
C1898      C2140   1.447       .  S
C1899      C2125   1.444       .  S
H1900      O1901   0.966       .  S
O1901     Ni1909   1.917       .  S
O1901     Ni1903   1.911   1_556  S
O1901     Ni1908   1.911       .  S
O1902     Ni1903   1.936       .  S
Ni1903     O1907   1.924       .  S
Ni1903     O1905   1.935   1_554  S
O1904     Ni1909   1.936       .  S
C1906      O1907   1.273       .  A
C1906      C2121   1.441       .  S
O1911     Ni1919   1.931       .  S
O1911      C1921   1.283       .  A
O1912      C1922   1.284       .  A
O1913      C1923   1.281       .  A
O1914     Ni1919   1.924       .  S
O1914      C1924   1.281       .  A
O1915     Ni1920   1.912       .  S
O1915      C1924   1.280       .  A
O1916      C1923   1.281       .  A
O1917      C1922   1.281       .  A
O1918     Ni1920   1.909       .  S
O1918      C1921   1.279       .  A
Ni1919    Ni1920   2.390       .  S
C1921      C2092   1.469       .  S
C1922      C2102   1.481       .  S
C1923      C2112   1.469       .  S
C1924      C2082   1.467       .  S
O1925     Ni1933   1.892       .  S
O1925      C1935   1.277       .  A
O1926     Ni1933   1.884       .  S
O1926      C1936   1.276       .  A
O1927     Ni1933   1.912       .  S
O1927      C1937   1.282       .  A
O1928     Ni1933   1.913       .  S
O1928      C1938   1.280       .  A
O1929     Ni1934   1.910       .  S
O1929      C1938   1.278       .  A
O1930     Ni1934   1.910       .  S
O1930      C1937   1.280       .  A
O1931     Ni1934   1.925       .  S
O1931      C1936   1.283       .  A
O1932     Ni1934   1.922       .  S
O1932      C1935   1.283       .  A
Ni1933    Ni1934   2.392       .  S
C1935      C2065   1.469       .  S
C1936      C2055   1.462       .  S
C1937      C2072   1.472       .  S
C1938      C2042   1.458       .  S
C1939      C2132   1.445       .  S
C1939      C1944   1.393       .  A
C1940      C2267   1.439       .  S
C1940      C1941   1.404       .  A
C1941      C1942   1.404       .  A
C1941      H1946   1.085       .  S
C1942      C2085   1.492       .  S
C1943      C2062   1.470       .  S
C1943      C1944   1.396       .  A
C1944      H1945   1.086       .  S
O1947     Ni1955   1.932       .  S
O1947      C1957   1.284       .  A
O1948      C1958   1.285       .  A
O1949      C1959   1.281       .  A
O1950     Ni1955   1.920       .  S
O1950      C1960   1.280       .  A
O1951     Ni1956   1.921       .  S
O1951      C1960   1.281       .  A
O1952      C1959   1.282       .  A
O1953      C1958   1.280       .  A
O1954     Ni1956   1.904       .  S
O1954      C1957   1.279       .  A
Ni1955    Ni1956   2.389       .  S
C1957      C2005   1.477       .  S
C1958      C2032   1.482       .  S
C1959      C2022   1.473       .  S
C1960      C2012   1.468       .  S
C1961      C2284   1.436       .  S
C1961      C1966   1.405       .  A
C1962      C2126   1.452       .  S
C1962      C1963   1.400       .  A
C1963      C1964   1.405       .  A
C1963      H1968   1.085       .  S
C1964      C2075   1.478       .  S
C1965      C2095   1.493       .  S
C1965      C1966   1.400       .  A
C1966      H1967   1.085       .  S
C1969      C2274   1.451       .  S
C1969      C1970   1.415       .  A
C1969      C1974   1.406       .  A
C1970      C2128   1.457       .  S
C1970      C1971   1.406       .  A
C1971      C1972   1.408       .  A
C1971      H1976   1.084       .  S
C1972      C2105   1.488       .  S
C1972      C1973   1.421       .  A
C1973      C2025   1.497       .  S
C1973      C1974   1.406       .  A
C1974      H1975   1.085       .  S
C1977      C2280   1.454       .  S
C1977      C1978   1.414       .  A
C1977      C1982   1.406       .  A
C1978      C2122   1.449       .  S
C1978      C1979   1.402       .  A
C1979      C1980   1.405       .  A
C1979      H1984   1.085       .  S
C1980      C2115   1.496       .  S
C1980      C1981   1.422       .  A
C1981      C2035   1.486       .  S
C1981      C1982   1.407       .  A
C1982      H1983   1.085       .  S
C1985      C2272   1.446       .  S
C1985      C1990   1.399       .  A
C1986      C2130   1.441       .  S
C1986      C1987   1.404       .  A
C1987      C1988   1.400       .  A
C1987      H1992   1.085       .  S
C1988      C2002   1.484       .  S
C1989      C2045   1.483       .  S
C1989      C1990   1.402       .  A
C1990      H1991   1.085       .  S
C1993      C2123   1.444       .  S
C1993      C1998   1.404       .  A
C1994      C2285   1.445       .  S
C1994      C1995   1.396       .  A
C1995      C1996   1.395       .  A
C1995      H2000   1.086       .  S
C1996      C2052   1.469       .  S
C1997      C2015   1.489       .  S
C1997      C1998   1.402       .  A
C1998      H1999   1.085       .  S
C2001      C2002   1.402       .  A
C2001      C2006   1.392       .  A
C2002      C2003   1.405       .  A
C2003      C2004   1.404       .  A
C2003      H2008   1.083       .  S
C2004      C2005   1.406       .  A
C2004      H2009   1.083       .  S
C2005      C2006   1.405       .  A
C2006      H2010   1.083       .  S
C2011      C2012   1.402       .  A
C2011      C2016   1.399       .  A
C2011      H2017   1.084       .  S
C2012      C2013   1.401       .  A
C2013      C2014   1.400       .  A
C2013      H2018   1.083       .  S
C2014      C2015   1.408       .  A
C2015      C2016   1.404       .  A
C2016      H2020   1.083       .  S
C2021      C2022   1.404       .  A
C2021      C2026   1.402       .  A
C2021      H2027   1.084       .  S
C2022      C2023   1.400       .  A
C2023      C2024   1.401       .  A
C2023      H2028   1.083       .  S
C2024      C2025   1.410       .  A
C2024      H2029   1.083       .  S
C2025      C2026   1.406       .  A
C2026      H2030   1.083       .  S
C2031      C2032   1.406       .  A
C2031      C2036   1.406       .  A
C2031      H2037   1.083       .  S
C2032      C2033   1.406       .  A
C2033      C2034   1.394       .  A
C2033      H2038   1.083       .  S
C2034      C2035   1.402       .  A
C2034      H2039   1.083       .  S
C2035      C2036   1.407       .  A
C2036      H2040   1.083       .  S
C2041      C2042   1.399       .  A
C2041      C2046   1.396       .  A
C2041      H2047   1.083       .  S
C2042      C2043   1.400       .  A
C2043      C2044   1.394       .  A
C2043      H2048   1.084       .  S
C2044      C2045   1.404       .  A
C2044      H2049   1.083       .  S
C2045      C2046   1.407       .  A
C2051      C2052   1.404       .  A
C2051      C2056   1.399       .  A
C2051      H2057   1.083       .  S
C2052      C2053   1.398       .  A
C2053      C2054   1.385       .  A
C2053      H2058   1.084       .  S
C2054      C2055   1.404       .  A
C2054      H2059   1.084       .  S
C2055      C2056   1.402       .  A
C2056      H2060   1.083       .  S
C2061      C2062   1.404       .  A
C2061      C2066   1.397       .  A
C2061      H2067   1.083       .  S
C2062      C2063   1.398       .  A
C2063      C2064   1.388       .  A
C2064      C2065   1.406       .  A
C2064      H2069   1.083       .  S
C2065      C2066   1.404       .  A
C2066      H2070   1.083       .  S
C2071      C2072   1.406       .  A
C2071      C2076   1.397       .  A
C2071      H2077   1.083       .  S
C2072      C2073   1.404       .  A
C2073      C2074   1.392       .  A
C2073      H2078   1.083       .  S
C2074      C2075   1.403       .  A
C2074      H2079   1.083   1_565  S
C2075      C2076   1.402       .  A
C2076      H2080   1.083       .  S
C2081      C2082   1.400       .  A
C2081      C2086   1.397       .  A
C2081      H2087   1.083       .  S
C2082      C2083   1.403       .  A
C2083      C2084   1.400       .  A
C2083      H2088   1.083       .  S
C2084      C2085   1.406       .  A
C2084      H2089   1.083       .  S
C2085      C2086   1.408       .  A
C2091      C2092   1.403       .  A
C2091      C2096   1.403       .  A
C2091      H2097   1.083       .  S
C2092      C2093   1.401       .  A
C2093      C2094   1.398       .  A
C2093      H2098   1.083       .  S
C2094      C2095   1.407       .  A
C2094      H2099   1.083       .  S
C2095      C2096   1.407       .  A
C2096      H2100   1.083       .  S
C2101      C2102   1.407       .  A
C2101      C2106   1.404       .  A
C2101      H2107   1.083       .  S
C2102      C2103   1.405       .  A
C2103      C2104   1.394       .  A
C2103      H2108   1.083       .  S
C2104      C2105   1.404       .  A
C2104      H2109   1.083       .  S
C2105      C2106   1.405       .  A
C2106      H2110   1.083       .  S
C2111      C2112   1.400       .  A
C2111      C2116   1.400       .  A
C2111      H2117   1.083       .  S
C2112      C2113   1.402       .  A
C2113      C2114   1.399       .  A
C2113      H2118   1.083       .  S
C2114      C2115   1.407       .  A
C2114      H2119   1.083       .  S
C2115      C2116   1.409       .  A
C2116      H2120   1.082       .  S
C2121      C2122   1.210       .  T
C2123      C2124   1.207       .  T
C2125      C2126   1.211       .  T
C2127      C2128   1.214       .  T
C2129      C2130   1.205       .  T
C2131      C2132   1.208       .  T
C2133      C2134   1.208       .  T
C2135      C2136   1.204       .  T
C2137      C2138   1.213       .  T
C2139      C2140   1.213       .  T
C2141      C2142   1.210       .  T
C2143      C2144   1.207       .  T
C2145      C2146   1.400       .  A
C2145      C2150   1.396       .  A
C2145      H2151   1.083       .  S
C2146      C2147   1.401       .  A
C2147      C2148   1.396       .  A
C2147      H2152   1.084       .  S
C2148      C2149   1.405       .  A
C2148      H2153   1.083       .  S
C2149      C2150   1.406       .  A
C2150      H2154   1.083       .  S
C2155      C2156   1.408       .  A
C2155      C2160   1.407       .  A
C2155      H2161   1.083       .  S
C2156      C2157   1.405       .  A
C2157      C2158   1.394       .  A
C2157      H2162   1.083       .  S
C2158      C2159   1.404       .  A
C2158      H2163   1.083       .  S
C2159      C2160   1.406       .  A
C2160      H2164   1.083       .  S
C2165      C2166   1.400       .  A
C2165      C2170   1.399       .  A
C2165      H2171   1.083       .  S
C2166      C2167   1.402       .  A
C2167      C2168   1.398       .  A
C2167      H2172   1.083       .  S
C2168      C2169   1.403       .  A
C2168      H2173   1.083       .  S
C2169      C2170   1.407       .  A
C2175      C2176   1.403       .  A
C2175      C2180   1.402       .  A
C2175      H2181   1.083       .  S
C2176      C2177   1.402       .  A
C2177      C2178   1.399       .  A
C2177      H2182   1.083       .  S
C2178      C2179   1.409       .  A
C2178      H2183   1.083       .  S
C2179      C2180   1.408       .  A
C2180      H2184   1.083       .  S
C2185      C2186   1.399       .  A
C2185      C2190   1.395       .  A
C2185      H2191   1.083       .  S
C2186      C2187   1.401       .  A
C2187      C2188   1.397       .  A
C2187      H2192   1.083       .  S
C2188      C2189   1.407       .  A
C2189      C2190   1.407       .  A
C2190      H2194   1.083       .  S
C2195      C2196   1.400       .  A
C2195      C2200   1.395       .  A
C2195      H2201   1.083       .  S
C2196      C2197   1.398       .  A
C2197      C2198   1.392       .  A
C2197      H2202   1.083       .  S
C2198      C2199   1.403       .  A
C2198      H2203   1.083       .  S
C2199      C2200   1.404       .  A
C2200      H2204   1.083       .  S
C2205      C2206   1.403       .  A
C2205      C2210   1.399       .  A
C2205      H2211   1.083       .  S
C2206      C2207   1.405       .  A
C2207      C2208   1.391       .  A
C2207      H2212   1.083       .  S
C2208      C2209   1.401       .  A
C2208      H2213   1.083       .  S
C2209      C2210   1.404       .  A
C2210      H2214   1.083       .  S
C2215      C2216   1.401       .  A
C2215      C2220   1.388       .  A
C2216      C2217   1.403       .  A
C2217      C2218   1.396       .  A
C2217      H2222   1.083       .  S
C2218      C2219   1.402       .  A
C2218      H2223   1.083       .  S
C2219      C2220   1.403       .  A
C2220      H2224   1.084       .  S
C2225      C2226   1.406       .  A
C2225      C2230   1.406       .  A
C2225      H2231   1.083       .  S
C2226      C2227   1.404       .  A
C2227      C2228   1.388       .  A
C2227      H2232   1.083       .  S
C2228      C2229   1.400       .  A
C2229      C2230   1.407       .  A
C2230      H2234   1.083       .  S
C2235      C2236   1.405       .  A
C2235      C2240   1.398       .  A
C2235      H2241   1.083       .  S
C2236      C2237   1.409       .  A
C2237      C2238   1.407       .  A
C2237      H2242   1.083       .  S
C2238      C2239   1.406       .  A
C2238      H2243   1.083       .  S
C2239      C2240   1.406       .  A
C2240      H2244   1.083       .  S
C2245      C2246   1.400       .  A
C2245      C2250   1.399       .  A
C2245      H2251   1.083       .  S
C2246      C2247   1.403       .  A
C2247      C2248   1.401       .  A
C2247      H2252   1.083       .  S
C2248      C2249   1.406       .  A
C2248      H2253   1.083       .  S
C2249      C2250   1.408       .  A
C2255      C2256   1.406       .  A
C2255      C2260   1.403       .  A
C2255      H2261   1.083       .  S
C2256      C2257   1.406       .  A
C2257      C2258   1.394       .  A
C2257      H2262   1.083       .  S
C2258      C2259   1.403       .  A
C2258      H2263   1.083       .  S
C2259      C2260   1.405       .  A
C2260      H2264   1.083       .  S
C2265      C2266   1.205       .  T
C2267      C2268   1.204       .  T
C2269      C2270   1.208       .  T
C2271      C2272   1.208       .  T
C2273      C2274   1.211       .  T
C2275      C2276   1.210       .  T
C2277      C2278   1.206       .  T
C2279      C2280   1.213       .  T
C2281      C2282   1.208       .  T
C2283      C2284   1.202       .  T
C2285      C2286   1.208       .  T
C2287      C2288   1.211       .  T
