geometry optimzed in LAMMPS
_audit_creation_date              2020-11-30 
_audit_creation_method            'lammps2cif' 
_symmetry_space_group_name_H-M    'P1' 
_symmetry_Int_Tables_number       1 
_symmetry_cell_setting            triclinic 
loop_ 
_symmetry_equiv_pos_as_xyz 
  x,y,z 
_cell_length_a                    37.49240643 
_cell_length_b                    37.628692596463964 
_cell_length_c                    52.803775493994685 
_cell_angle_alpha                 89.83518830265237 
_cell_angle_beta                  90.49613219728381 
_cell_angle_gamma                 119.16984088888617 
loop_ 
_atom_site_label 
_atom_site_type_symbol 
_atom_site_fract_x 
_atom_site_fract_y 
_atom_site_fract_z 
_atom_site_charge 
C1          C  0.99783942  0.99586529  0.77502058     0.45800
H2          H  0.99928767  0.99657775  0.79601712    -0.03200
C3          C  0.99486513  0.99573028  0.72563061     0.45900
H4          H  0.99293724  0.99587469  0.70470918    -0.03200
C5          C  0.95889642  0.96008599  0.76393176    -0.16900
C6          C  0.99951032  0.03438042  0.76372364    -0.16700
C7          C  0.03300391  0.99260729  0.76235143    -0.17000
C8          C  0.95754017  0.95992213  0.73793206    -0.17000
C9          C  0.99802560  0.03434718  0.73771133    -0.16600
C10         C  0.03189966  0.99322089  0.73623517    -0.16900
O11         O  0.64476593  0.24897162  0.01723746    -0.78100
C12         C  0.56949460  0.30950402  0.01788733     0.82900
O13         O  0.62423763  0.28595046  0.93033510    -0.79200
O14         O  0.65864444  0.41227647  0.96824679    -0.80700
O15         O  0.74498792  0.39467122  0.02184884    -0.80500
O16         O  0.70995137  0.29478335  0.02388012    -0.79200
Zn17       Zn  0.62272753  0.27737451  0.99437168     1.55700
O18         O  0.69501511  0.41042531  0.02462937    -0.80500
Cd19       Cd  0.71933173  0.34198504  0.00027630     1.59700
Cd20       Cd  0.67274350  0.33493001  0.94767592     1.59600
O21         O  0.75973703  0.34437161  0.97289146    -0.80500
O22         O  0.66620484  0.33105230  0.98516328    -1.91000
Cd23       Cd  0.65312421  0.37334946  0.99749587     1.59900
O24         O  0.72565163  0.33491701  0.93671679    -0.80500
O25         O  0.59477480  0.34643348  0.01255109    -0.79200
C26         C  0.59731564  0.25189428  0.93912911     0.83400
C27         C  0.67923467  0.26004625  0.02803250     0.83000
O28         O  0.57737459  0.28087906  0.01302136    -0.78100
C29         C  0.73045872  0.41637934  0.03080613     0.83900
O30         O  0.59565750  0.24425946  0.96280825    -0.78200
C31         C  0.75714855  0.33962878  0.94894165     0.84000
C32         C  0.66932447  0.41499125  0.94513232     0.84300
O33         O  0.67571763  0.38806525  0.93486036    -0.80600
C34         C  0.71949002  0.73350374  0.85423486     0.80600
N35         N  0.71968982  0.69741175  0.85527128    -0.77700
C36         C  0.68850872  0.66445561  0.86639935     0.83000
N37         N  0.65762198  0.66792488  0.87698268    -0.77700
C38         C  0.65704763  0.70352629  0.87620932     0.83100
N39         N  0.68786798  0.73633754  0.86468714    -0.79400
O40         O  0.28133591  0.70520917  0.04630156    -0.78100
C41         C  0.40969575  0.74505107  0.05261006     0.82900
O42         O  0.32059730  0.72070441  0.95963217    -0.79200
O43         O  0.41299023  0.66990882  0.99358783    -0.80700
O44         O  0.28690367  0.58346664  0.04173884    -0.80500
O45         O  0.24029471  0.63873207  0.04041734    -0.79200
Zn46       Zn  0.33001212  0.72012254  0.02355397     1.55700
O47         O  0.35449510  0.60967335  0.04117655    -0.80500
Cd48       Cd  0.27607037  0.62241353  0.01964432     1.59700
Cd49       Cd  0.32977234  0.67372497  0.97211314     1.59600
O50         O  0.24473342  0.58856398  0.98833711    -0.80500
O51         O  0.32781294  0.67121058  0.00981856    -1.91000
Cd52       Cd  0.37449386  0.66498502  0.02289254     1.59900
O53         O  0.28507124  0.62009521  0.95590229    -0.80500
O54         O  0.40959114  0.71186613  0.04766807    -0.79200
C55         C  0.32119610  0.75060247  0.97129160     0.83400
C56         C  0.24797055  0.67251460  0.05040778     0.83000
O57         O  0.38241060  0.75282351  0.04381608    -0.78100
C58         C  0.31904981  0.58186720  0.04763818     0.83900
O59         O  0.32620549  0.75479182  0.99523821    -0.78200
C60         C  0.25306103  0.59010344  0.96491567     0.84000
C61         C  0.41424793  0.67900003  0.97019570     0.84300
O62         O  0.38578788  0.68306708  0.95959042    -0.80600
C63         C  0.26065953  0.25507157  0.13103597     0.80600
N64         N  0.29140034  0.24956586  0.12163694    -0.77700
C65         C  0.32329818  0.28055859  0.10943559     0.83000
N66         N  0.32411992  0.31683680  0.10668253    -0.77700
C67         C  0.29347249  0.32235558  0.11575280     0.83100
N68         N  0.26192268  0.29155261  0.12808955    -0.79400
C69         C  0.28096765  0.00022350  0.84250447     0.80600
N70         N  0.31892919  0.03341254  0.84343590    -0.77700
C71         C  0.35071538  0.03067212  0.85401915     0.83000
N72         N  0.34405732  0.99491049  0.86428100    -0.77700
C73         C  0.30636601  0.96187001  0.86369993     0.83100
N74         N  0.27476369  0.96468967  0.85314547    -0.79400
C75         C  0.97872334  0.71390221  0.15011134     0.80600
N76         N  0.94241987  0.68128642  0.14314581    -0.77700
C77         C  0.94183533  0.64888099  0.13133320     0.83000
N78         N  0.97760082  0.65009213  0.12561354    -0.77700
C79         C  0.01371888  0.68281914  0.13189596     0.83100
N80         N  0.01416960  0.71454239  0.14417928    -0.79400
C81         C  0.01989564  0.28097408  0.85116965     0.80600
N82         N  0.05572716  0.31589221  0.85542598    -0.77700
C83         C  0.05529815  0.34938475  0.86461631     0.83000
N84         N  0.01919915  0.34741889  0.87008100    -0.77700
C85         C  0.98339472  0.31292377  0.86611565     0.83100
N86         N  0.98375523  0.27967600  0.85642281    -0.79400
C87         C  0.72745513  0.00870949  0.14929548     0.80600
N88         N  0.72992189  0.04417940  0.14112677    -0.77700
C89         C  0.69775728  0.04374053  0.12879520     0.83000
N90         N  0.66392090  0.00774915  0.12376192    -0.77700
C91         C  0.66161959  0.97214754  0.13107111     0.83100
N92         N  0.69330457  0.97268439  0.14411640    -0.79400
O93         O  0.70070364  0.28608275  0.46025017    -0.78100
C94         C  0.73209803  0.41228927  0.45668620     0.82900
O95         O  0.70782203  0.31213065  0.54613171    -0.79200
O96         O  0.65660783  0.40684289  0.51873437    -0.80700
O97         O  0.57807478  0.28779745  0.45967361    -0.80500
O98         O  0.63461326  0.24118420  0.46446998    -0.79200
Zn99       Zn  0.71087162  0.33258044  0.48330616     1.55700
O100        O  0.59820323  0.35315836  0.46760831    -0.80500
Cd101      Cd  0.61389554  0.27500322  0.48359573     1.59700
Cd102      Cd  0.66053806  0.32214059  0.53464500     1.59600
O103        O  0.57594043  0.24060761  0.51233936    -0.80500
O104        O  0.66028650  0.32579379  0.49700342    -1.91000
Cd105      Cd  0.65263799  0.37251776  0.48717730     1.59900
O106        O  0.60560878  0.27498024  0.54758601    -0.80500
O107        O  0.69894680  0.41082702  0.46350083    -0.79200
C108        C  0.73982333  0.31781581  0.53443967     0.83400
C109        C  0.67000622  0.25122841  0.45607833     0.83000
O110        O  0.74120714  0.38517527  0.46366174    -0.78100
C111        C  0.57387898  0.31922667  0.45714619     0.83900
O112        O  0.74557172  0.32899162  0.51135704    -0.78200
C113        C  0.57614839  0.24504411  0.53622596     0.84000
C114        C  0.66524391  0.40557034  0.54200354     0.84300
O115        O  0.66906777  0.37592254  0.55072516    -0.80600
C116        C  0.72940849  0.71130007  0.65538691     0.80600
N117        N  0.69479086  0.71255655  0.64920301    -0.77700
C118        C  0.66222100  0.67952928  0.63904705     0.83000
N119        N  0.66422967  0.64490571  0.63561361    -0.77700
C120        C  0.69820335  0.64287434  0.64209670     0.83100
N121        N  0.73120062  0.67643934  0.65159296    -0.79400
O122        O  0.25421043  0.64622452  0.47638407    -0.78100
C123        C  0.32988890  0.58572999  0.46434407     0.82900
O124        O  0.29328476  0.61498789  0.55785994    -0.79200
O125        O  0.42461777  0.66532201  0.52062040    -0.80700
O126        O  0.39358210  0.75425971  0.47333238    -0.80500
O127        O  0.29293040  0.71327176  0.47812125    -0.79200
Zn128      Zn  0.28820054  0.62475811  0.49402029     1.55700
O129        O  0.42028380  0.71332541  0.46858629    -0.80500
Cd130      Cd  0.34469211  0.72236018  0.49701041     1.59700
Cd131      Cd  0.34190858  0.66712483  0.54432572     1.59600
O132        O  0.34991687  0.75734982  0.52840385    -0.80500
O133        O  0.33941762  0.66902715  0.50668465    -1.91000
Cd134      Cd  0.38615751  0.66494869  0.49228858     1.59900
O135        O  0.34143691  0.71645188  0.56096019    -0.80500
O136        O  0.36547008  0.61202409  0.47178461    -0.79200
C137        C  0.26145715  0.58773625  0.54674056     0.83400
C138        C  0.25989534  0.68190383  0.47163915     0.83000
O139        O  0.29832298  0.58835282  0.47026252    -0.78100
C140        C  0.42000132  0.74639258  0.46374380     0.83900
O141        O  0.25574494  0.58887314  0.52300350    -0.78200
C142        C  0.34617660  0.74997812  0.55207286     0.84000
C143        C  0.42347173  0.66630292  0.54468612     0.84300
O144        O  0.39419090  0.66719168  0.55615040    -0.80600
C145        C  0.27348469  0.99707889  0.65074796     0.80600
N146        N  0.27466976  0.96149526  0.64918164    -0.77700
C147        C  0.30795939  0.96113108  0.63945182     0.83000
N148        N  0.33997807  0.99638799  0.63150153    -0.77700
C149        C  0.33940272  0.03193613  0.63309611     0.83100
N150        N  0.30594577  0.03219121  0.64249678    -0.79400
C151        C  0.00383827  0.27001816  0.64163421     0.80600
N152        N  0.04113903  0.30315700  0.63766758    -0.77700
C153        C  0.04399404  0.33599241  0.62514422     0.83000
N154        N  0.00971776  0.33585774  0.61689530    -0.77700
C155        C  0.97239132  0.30362363  0.62097380     0.83100
N156        N  0.96965808  0.27061449  0.63330051    -0.79400
C157        C  0.99450434  0.73498699  0.36847580     0.80600
N158        N  0.02975528  0.73573996  0.37601125    -0.77700
C159        C  0.02819286  0.70393538  0.38922245     0.83000
N160        N  0.99155640  0.67172069  0.39490832    -0.77700
C161        C  0.95650171  0.67032576  0.38705435     0.83100
N162        N  0.95788853  0.70185843  0.37378751    -0.79400
C163        C  0.26820793  0.27654904  0.35054601     0.80600
N164        N  0.30360097  0.27517955  0.35341817    -0.77700
C165        C  0.33673424  0.30667745  0.36438661     0.83000
N166        N  0.33415865  0.33921452  0.37291314    -0.77700
C167        C  0.29908140  0.34096283  0.37040554     0.83100
N168        N  0.26599444  0.30959602  0.35905975    -0.79400
C169        C  0.72849328  0.99514540  0.35513415     0.80600
N170        N  0.69598494  0.95963960  0.36297802    -0.77700
C171        C  0.66323091  0.96005388  0.37355500     0.83000
N172        N  0.66319612  0.99574231  0.37633706    -0.77700
C173        C  0.69525223  0.03112224  0.36863247     0.83100
N174        N  0.72802122  0.03082401  0.35814192    -0.79400
C175        C  0.99960926  0.99810335  0.22481816     0.45800
H176        H  0.99748792  0.99707913  0.20386570    -0.03200
C177        C  0.00263036  0.00079460  0.27415989     0.45900
H178        H  0.00367230  0.00199050  0.29519853    -0.03200
C179        C  0.03704512  0.03609494  0.23550596    -0.16900
C180        C  0.96224070  0.99777901  0.23697784    -0.16700
C181        C  0.00221282  0.96211869  0.23699268    -0.17000
C182        C  0.03765097  0.03810137  0.26154434    -0.17000
C183        C  0.96375021  0.99841049  0.26293828    -0.16600
C184        C  0.00426615  0.96390013  0.26310776    -0.16900
C185        C  0.85996136  0.96451057  0.29210402    -0.22100
C186        C  0.86735292  0.99970129  0.30528597     0.09900
C187        C  0.90728007  0.03324422  0.30631301     0.10300
C188        C  0.93865288  0.03141235  0.29305672    -0.17000
C189        C  0.93079754  0.99679856  0.27895637    -0.27400
C190        C  0.89126308  0.96241700  0.27912126     0.18600
C191        C  0.83263075  0.00013817  0.31808023     0.12600
C192        C  0.91665166  0.07079350  0.32133741    -0.11800
H193        H  0.96915693  0.05747383  0.29307078     0.12900
C194        C  0.88109642  0.92291416  0.26618067    -0.22600
H195        H  0.82942361  0.93847814  0.29189204     0.08500
C196        C  0.81232050  0.02009696  0.30760761     0.04800
C197        C  0.77868912  0.01810521  0.32030036    -0.19900
C198        C  0.76388901  0.99546306  0.34266828    -0.12100
C199        C  0.78396231  0.97503386  0.35286558     0.13500
C200        C  0.81828056  0.97794148  0.34053525    -0.22600
C201        C  0.82469510  0.04290161  0.28287381    -0.05600
H202        H  0.76330106  0.03367006  0.31232503     0.15100
C203        C  0.76970726  0.95039610  0.37676011    -0.15800
H204        H  0.83378226  0.96232319  0.34824443     0.09400
H205        H  0.85743573  0.91609528  0.25136435     0.07200
H206        H  0.86897024  0.89791264  0.28030856     0.08400
H207        H  0.90789315  0.92333666  0.25726075     0.07500
H208        H  0.90869695  0.06253279  0.34150355     0.02400
H209        H  0.89870149  0.08482737  0.31381292     0.02900
H210        H  0.94953675  0.09388183  0.32041392     0.06400
H211        H  0.79871395  0.02911180  0.26924406     0.05300
H212        H  0.85110163  0.04231121  0.27405490    -0.00400
H213        H  0.83300641  0.07518743  0.28606744     0.01000
H214        H  0.73960888  0.92333030  0.37311142    -0.02100
H215        H  0.76744866  0.96906532  0.39226255     0.06600
H216        H  0.79092550  0.93934453  0.38306979     0.07500
C217        C  0.10808785  0.14532477  0.28565891    -0.22100
C218        C  0.13351894  0.13828124  0.30203388     0.09900
C219        C  0.12529357  0.09809713  0.30677505     0.10300
C220        C  0.09252406  0.06576479  0.29413613    -0.17000
C221        C  0.06847777  0.07297094  0.27657349    -0.27400
C222        C  0.07514568  0.11308762  0.27318173     0.18600
C223        C  0.16840774  0.17361218  0.31412420     0.12600
C224        C  0.15151956  0.08954198  0.32479620    -0.11800
H225        H  0.08665296  0.03488511  0.29717857     0.12900
C226        C  0.04748814  0.12293634  0.25732860    -0.22600
H227        H  0.11391122  0.17622525  0.28269200     0.08500
C228        C  0.20756591  0.19310081  0.30310929     0.04800
C229        C  0.23934692  0.22676148  0.31541364    -0.19900
C230        C  0.23276924  0.24199800  0.33811534    -0.12100
C231        C  0.19338303  0.22250394  0.34897144     0.13500
C232        C  0.16174841  0.18843964  0.33685047    -0.22600
C233        C  0.21678095  0.17929479  0.27843097    -0.05600
H234        H  0.26950898  0.24149804  0.30705872     0.15100
C235        C  0.18464355  0.23659131  0.37360365    -0.15800
H236        H  0.13152371  0.17322268  0.34509713     0.09400
H237        H  0.06503417  0.14311823  0.24143330     0.07200
H238        H  0.03546330  0.13898122  0.26919925     0.08400
H239        H  0.02078098  0.09554592  0.24949617     0.07500
H240        H  0.15053051  0.10110569  0.34395129     0.02400
H241        H  0.18356453  0.10489118  0.31808143     0.02900
H242        H  0.14090730  0.05642593  0.32629284     0.06400
H243        H  0.24091212  0.17070704  0.28157346     0.05300
H244        H  0.22792752  0.20458147  0.26452423    -0.00400
H245        H  0.18981496  0.15275655  0.26999398     0.01000
H246        H  0.18817131  0.26739685  0.37112206     0.04700
H247        H  0.20584674  0.23700008  0.38855435     0.06600
H248        H  0.15293223  0.21622215  0.38004316     0.07500
C249        C  0.02112537  0.84154416  0.34587662    -0.22100
C250        C  0.99403483  0.83220610  0.32535430     0.09900
C251        C  0.96725480  0.79100406  0.31919880     0.10300
C252        C  0.96816974  0.76031299  0.33382247    -0.17000
C253        C  0.99532286  0.76949628  0.35437866    -0.27400
C254        C  0.02166904  0.81088225  0.36081093     0.18600
C255        C  0.99625428  0.86630367  0.31000550     0.12600
C256        C  0.93807926  0.77823362  0.29702000    -0.11800
H257        H  0.94785667  0.72876956  0.32878894     0.12900
C258        C  0.04939282  0.82433041  0.38377269    -0.22600
H259        H  0.04158261  0.87320465  0.35057598     0.08500
C260        C  0.96618347  0.87854678  0.31126380     0.04800
C261        C  0.96998452  0.91079756  0.29595483    -0.19900
C262        C  0.00346060  0.93151508  0.27980460    -0.12100
C263        C  0.03493101  0.92102300  0.28001389     0.13500
C264        C  0.03045202  0.88797672  0.29467457    -0.22600
C265        C  0.93061499  0.85821804  0.32905443    -0.05600
H266        H  0.94659118  0.91975823  0.29647568     0.15100
C267        C  0.07447009  0.94600593  0.26635297    -0.15800
H268        H  0.05416221  0.87937579  0.29459418     0.09400
H269        H  0.04354404  0.84571568  0.39515123     0.07200
H270        H  0.08175160  0.84030755  0.37763970     0.08400
H271        H  0.04455330  0.79915682  0.39660964     0.07500
H272        H  0.93953450  0.80445512  0.28665020     0.02400
H273        H  0.90632212  0.75921879  0.30379873     0.02900
H274        H  0.94536300  0.76011694  0.28355090     0.06400
H275        H  0.91063122  0.87234712  0.32809081     0.05300
H276        H  0.94207606  0.86099707  0.34880747    -0.00400
H277        H  0.91172451  0.82555789  0.32419317     0.01000
H278        H  0.09580021  0.93367791  0.26899549     0.04700
H279        H  0.08962634  0.97733190  0.27410143     0.06600
H280        H  0.06905942  0.94650178  0.24583356     0.07500
C281        C  0.16220608  0.50082675  0.57143132    -0.22100
C282        C  0.17711712  0.48405958  0.58962754     0.09900
C283        C  0.21938955  0.50233673  0.59445559     0.10300
C284        C  0.24607525  0.53681717  0.58055780    -0.17000
C285        C  0.23137292  0.55299896  0.56172675    -0.27400
C286        C  0.18878622  0.53519941  0.55741554     0.18600
C287        C  0.14757874  0.44634418  0.60253404     0.12600
C288        C  0.23624244  0.48548666  0.61424298    -0.11800
H289        H  0.27867454  0.55056983  0.58395919     0.12900
C290        C  0.17101376  0.55271248  0.53863215    -0.22600
H291        H  0.12956659  0.48654879  0.56800397     0.08500
C292        C  0.12066404  0.44665815  0.62087196     0.04800
C293        C  0.08885835  0.40957534  0.62952511    -0.19900
C294        C  0.08344974  0.37233416  0.62023096    -0.12100
C295        C  0.11185340  0.37205825  0.60288896     0.13500
C296        C  0.14375476  0.40923632  0.59434659    -0.22600
C297        C  0.12493693  0.48605116  0.63082460    -0.05600
H298        H  0.06684641  0.40960551  0.64269462     0.15100
C299        C  0.10811692  0.33359043  0.59166520    -0.15800
H300        H  0.16454287  0.40928316  0.58017908     0.09400
H301        H  0.13710346  0.53653401  0.53915640     0.07200
H302        H  0.18001004  0.54986729  0.51910667     0.08400
H303        H  0.18197309  0.58525686  0.54309122     0.07500
H304        H  0.22854747  0.45392003  0.60919869     0.02400
H305        H  0.22288313  0.48537011  0.63294831     0.02900
H306        H  0.26999903  0.50393740  0.61592736     0.06400
H307        H  0.10181228  0.48072724  0.64549890     0.05300
H308        H  0.12086023  0.50354470  0.61518943    -0.00400
H309        H  0.15573101  0.50448896  0.63943524     0.01000
H310        H  0.10484952  0.33415575  0.57076714     0.04700
H311        H  0.08159000  0.30559968  0.59879525     0.06600
H312        H  0.13613781  0.33171800  0.59616849     0.07500
C313        C  0.34233672  0.49885516  0.43699692    -0.22100
C314        C  0.31236437  0.48447968  0.41791452     0.09900
C315        C  0.28802240  0.50315495  0.41417018     0.10300
C316        C  0.29446141  0.53614568  0.42958468    -0.17000
C317        C  0.32495326  0.55112274  0.44849850    -0.27400
C318        C  0.34919477  0.53204476  0.45227710     0.18600
C319        C  0.30623885  0.44867393  0.40294982     0.12600
C320        C  0.25568775  0.48862642  0.39373128    -0.11800
H321        H  0.27582597  0.55058855  0.42668070     0.12900
C322        C  0.38128381  0.54525575  0.47290266    -0.22600
H323        H  0.36030771  0.48371753  0.44002046     0.08500
C324        C  0.33557596  0.45122846  0.38542625     0.04800
C325        C  0.33092569  0.41551033  0.37415366    -0.19900
C326        C  0.29812627  0.37717369  0.38035090    -0.12100
C327        C  0.26855427  0.37478802  0.39782077     0.13500
C328        C  0.27254782  0.41073164  0.40837937    -0.22600
C329        C  0.37198282  0.49152283  0.37881817    -0.05600
H330        H  0.35378735  0.41736730  0.36096252     0.15100
C331        C  0.23455756  0.33520238  0.40759596    -0.15800
H332        H  0.25058276  0.40890842  0.42227620     0.09400
H333        H  0.40638984  0.57648522  0.46910450     0.07200
H334        H  0.39510870  0.52504551  0.47404870     0.08400
H335        H  0.36740195  0.54438629  0.49154590     0.07500
H336        H  0.23220477  0.45659698  0.39732680     0.02400
H337        H  0.26985937  0.49062385  0.37502976     0.02900
H338        H  0.24009763  0.50725760  0.39297013     0.06400
H339        H  0.39131505  0.48809442  0.36426449     0.05300
H340        H  0.39129290  0.50535640  0.39587815    -0.00400
H341        H  0.36145685  0.51243024  0.37125148     0.01000
H342        H  0.23501378  0.33554803  0.42862980     0.04700
H343        H  0.23759338  0.30863324  0.40190398     0.06600
H344        H  0.20470155  0.33124940  0.40086035     0.07500
C345        C  0.28596954  0.85928295  0.61262466    -0.22100
C346        C  0.32411238  0.86149820  0.61626671     0.09900
C347        C  0.35419102  0.89310304  0.63115509     0.10300
C348        C  0.34648084  0.92351514  0.64048748    -0.17000
C349        C  0.30942518  0.92304570  0.63529294    -0.27400
C350        C  0.27811688  0.88962983  0.62205125     0.18600
C351        C  0.33323369  0.83319552  0.60187418     0.12600
C352        C  0.39465723  0.89519647  0.63673006    -0.11800
H353        H  0.37031563  0.94895330  0.65087109     0.12900
C354        C  0.23754829  0.88716549  0.61627469    -0.22600
H355        H  0.26301789  0.83481538  0.60117002     0.08500
C356        C  0.31477115  0.79142997  0.60767861     0.04800
C357        C  0.32094567  0.76536617  0.59158118    -0.19900
C358        C  0.34497617  0.78003565  0.56969289    -0.12100
C359        C  0.36544481  0.82246278  0.56478211     0.13500
C360        C  0.35896898  0.84834782  0.58086868    -0.22600
C361        C  0.28855779  0.77442053  0.63079556    -0.05600
H362        H  0.30566929  0.73304874  0.59569135     0.15100
C363        C  0.39461286  0.84095219  0.54301366    -0.15800
H364        H  0.37331181  0.88063514  0.57670653     0.09400
H365        H  0.21720802  0.85950065  0.60512130     0.07200
H366        H  0.24222069  0.91413706  0.60511829     0.08400
H367        H  0.22177991  0.88594469  0.63421541     0.07500
H368        H  0.41151498  0.89877217  0.61890507     0.02400
H369        H  0.38946678  0.86683170  0.64637933     0.02900
H370        H  0.41420807  0.92134203  0.64924047     0.06400
H371        H  0.27733891  0.74127015  0.63289907     0.05300
H372        H  0.26157795  0.77907846  0.62945972    -0.00400
H373        H  0.30662052  0.79001389  0.64799619     0.01000
H374        H  0.41029986  0.87474319  0.54353908     0.04700
H375        H  0.37793891  0.83127672  0.52468501     0.06600
H376        H  0.41844432  0.83154883  0.54396883     0.07500
C377        C  0.59289294  0.86826000  0.41268524    -0.22100
C378        C  0.55477532  0.86071474  0.40327420     0.09900
C379        C  0.55261777  0.88364163  0.38276855     0.10300
C380        C  0.58891272  0.91430901  0.37235710    -0.17000
C381        C  0.62716777  0.92262779  0.38212255    -0.27400
C382        C  0.62922738  0.89927881  0.40249658     0.18600
C383        C  0.51776142  0.83099648  0.41670474     0.12600
C384        C  0.51208998  0.87624804  0.37225771    -0.11800
H385        H  0.58747751  0.93288909  0.35707048     0.12900
C386        C  0.66934023  0.90841404  0.41449471    -0.22600
H387        H  0.59408985  0.85075303  0.42869095     0.08500
C388        C  0.50149000  0.78879678  0.41338027     0.04800
C389        C  0.46872582  0.76195480  0.42845280    -0.19900
C390        C  0.45178320  0.77640057  0.44674707    -0.12100
C391        C  0.46735593  0.81899876  0.44929374     0.13500
C392        C  0.50029164  0.84565085  0.43426027    -0.22600
C393        C  0.51888128  0.77223476  0.39403067    -0.05600
H394        H  0.45661312  0.72946116  0.42613089     0.15100
C395        C  0.45091377  0.83695786  0.46841317    -0.15800
H396        H  0.51323272  0.87826605  0.43657758     0.09400
H397        H  0.68783433  0.90275251  0.40057770     0.07200
H398        H  0.66507216  0.88872706  0.43118172     0.08400
H399        H  0.68606708  0.94062371  0.42086303     0.07500
H400        H  0.49470550  0.88188622  0.38713880     0.02400
H401        H  0.49416571  0.84426656  0.36562299     0.02900
H402        H  0.51594074  0.89662302  0.35602552     0.06400
H403        H  0.50215791  0.73843822  0.39357853     0.05300
H404        H  0.55140894  0.78238340  0.39856056    -0.00400
H405        H  0.51671227  0.78345498  0.37491682     0.01000
H406        H  0.46823954  0.87075321  0.46841296     0.04700
H407        H  0.45318627  0.82653301  0.48775605     0.06600
H408        H  0.41860830  0.82776578  0.46384618     0.07500
C409        C  0.19739576  0.72755306  0.44219319    -0.22100
C410        C  0.16253518  0.69241690  0.43414466     0.09900
C411        C  0.15957435  0.65403388  0.43800729     0.10300
C412        C  0.19185841  0.65168832  0.45006818    -0.17000
C413        C  0.22717724  0.68689493  0.45846916    -0.27400
C414        C  0.22975869  0.72557670  0.45437531     0.18600
C415        C  0.12882166  0.69676120  0.42265265     0.12600
C416        C  0.12228562  0.61561690  0.42946399    -0.11800
H417        H  0.18923820  0.62199683  0.45299726     0.12900
C418        C  0.26578381  0.76519942  0.46288011    -0.22600
H419        H  0.19892594  0.75678723  0.43917803     0.08500
C420        C  0.09791521  0.69643822  0.43778430     0.04800
C421        C  0.06628469  0.70030869  0.42618386    -0.19900
C422        C  0.06516420  0.70510644  0.39986286    -0.12100
C423        C  0.09679211  0.70651467  0.38473513     0.13500
C424        C  0.12838867  0.70240045  0.39641638    -0.22600
C425        C  0.09828820  0.69191498  0.46614268    -0.05600
H426        H  0.04193056  0.69914400  0.43770042     0.15100
C427        C  0.09750172  0.71063213  0.35632813    -0.15800
H428        H  0.15253618  0.70299642  0.38496675     0.09400
H429        H  0.26165464  0.79179024  0.45823555     0.07200
H430        H  0.29389814  0.76988147  0.45318179     0.08400
H431        H  0.26967792  0.76508364  0.48374368     0.07500
H432        H  0.11824400  0.61658804  0.40866872     0.02400
H433        H  0.09476530  0.61268055  0.43906674     0.02900
H434        H  0.12487744  0.58809259  0.43392474     0.06400
H435        H  0.07179740  0.69234296  0.47509091     0.05300
H436        H  0.12664831  0.71736020  0.47424722    -0.00400
H437        H  0.09706607  0.66264093  0.47102130     0.01000
H438        H  0.12566600  0.73860543  0.35065209     0.04700
H439        H  0.07089968  0.71242417  0.34858664     0.06600
H440        H  0.09756291  0.68388258  0.34754615     0.07500
C441        C  0.59250233  0.71201072  0.60571319    -0.22100
C442        C  0.55546334  0.67551307  0.60639355     0.09900
C443        C  0.55260071  0.64201941  0.61999112     0.10300
C444        C  0.58764328  0.64521150  0.63172910    -0.17000
C445        C  0.62550287  0.68105212  0.63008218    -0.27400
C446        C  0.62773820  0.71536083  0.61740513     0.18600
C447        C  0.52085448  0.67224314  0.59120378     0.12600
C448        C  0.51274990  0.60281280  0.62172355    -0.11800
H449        H  0.58568479  0.61908333  0.64169235     0.12900
C450        C  0.66723950  0.75477740  0.61483185    -0.22600
H451        H  0.59406150  0.73754006  0.59521089     0.08500
C452        C  0.49578487  0.68763149  0.60001399     0.04800
C453        C  0.46425619  0.68503602  0.58438950    -0.19900
C454        C  0.45726256  0.66744322  0.56008155    -0.12100
C455        C  0.48225945  0.65132506  0.55150606     0.13500
C456        C  0.51382736  0.65410172  0.56725000    -0.22600
C457        C  0.50223764  0.70657656  0.62591822    -0.05600
H458        H  0.44528710  0.69733746  0.59115277     0.15100
C459        C  0.47560265  0.63033194  0.52622424    -0.15800
H460        H  0.53337011  0.64222313  0.56085501     0.09400
H461        H  0.66328473  0.77742077  0.60334938     0.07200
H462        H  0.69037565  0.74920568  0.60534342     0.08400
H463        H  0.67862138  0.76841045  0.63380883     0.07500
H464        H  0.50214379  0.58986739  0.60250961     0.02400
H465        H  0.48935001  0.60867335  0.63056658     0.02900
H466        H  0.51579793  0.57976640  0.63334560     0.06400
H467        H  0.47953821  0.71667387  0.62998567     0.05300
H468        H  0.53319864  0.73351486  0.62726048    -0.00400
H469        H  0.49923408  0.68406306  0.64056015     0.01000
H470        H  0.49643396  0.61746529  0.52362933     0.04700
H471        H  0.48167665  0.65233428  0.51062900     0.06600
H472        H  0.44376190  0.60484724  0.52477800     0.07500
C473        C  0.89843064  0.33815468  0.59569914    -0.22100
C474        C  0.86482922  0.30080242  0.58912005     0.09900
C475        C  0.86567143  0.26441596  0.59396368     0.10300
C476        C  0.90077849  0.26628975  0.60491466    -0.17000
C477        C  0.93527914  0.30379328  0.61092958    -0.27400
C478        C  0.93370951  0.34035276  0.60652545     0.18600
C479        C  0.83027570  0.30122462  0.57574938     0.12600
C480        C  0.82958614  0.22371973  0.58749188    -0.11800
H481        H  0.90157872  0.23826062  0.60809599     0.12900
C482        C  0.96844285  0.38194242  0.61327434    -0.22600
H483        H  0.89723086  0.36586776  0.59182656     0.08500
C484        C  0.80154293  0.30814897  0.58867298     0.04800
C485        C  0.77219360  0.31299875  0.57472100    -0.19900
C486        C  0.77092994  0.31110962  0.54807359    -0.12100
C487        C  0.79881268  0.30208262  0.53528407     0.13500
C488        C  0.82826586  0.29763020  0.54936778    -0.22600
C489        C  0.80194720  0.31038552  0.61715849    -0.05600
H490        H  0.75060065  0.31904570  0.58473591     0.15100
C491        C  0.79762472  0.29621052  0.50696238    -0.15800
H492        H  0.85044840  0.29197999  0.53973248     0.09400
H493        H  0.95993484  0.40613929  0.61047741     0.07200
H494        H  0.99508581  0.38972504  0.60096703     0.08400
H495        H  0.97713806  0.38265688  0.63349596     0.07500
H496        H  0.82340290  0.22177091  0.56680561     0.02400
H497        H  0.80223814  0.21993600  0.59776623     0.02900
H498        H  0.83504774  0.19819730  0.59286241     0.06400
H499        H  0.77684744  0.31518649  0.62432124     0.05300
H500        H  0.83135642  0.33602310  0.62390299    -0.00400
H501        H  0.79817524  0.28149810  0.62526347     0.01000
H502        H  0.81976863  0.28642217  0.50080312     0.04700
H503        H  0.80578199  0.32523392  0.49711128     0.06600
H504        H  0.76669450  0.27229594  0.50093554     0.07500
C505        C  0.67167793  0.15534894  0.43667667    -0.22100
C506        C  0.68682456  0.16545136  0.41203581     0.09900
C507        C  0.69673727  0.20381881  0.40191377     0.10300
C508        C  0.69141584  0.23159268  0.41688343    -0.17000
C509        C  0.67586586  0.22136202  0.44150035    -0.27400
C510        C  0.66640056  0.18297055  0.45170481     0.18600
C511        C  0.69208575  0.13504324  0.39741568     0.12600
C512        C  0.71257077  0.21515492  0.37534520    -0.11800
H513        H  0.69880566  0.26115243  0.40924500     0.12900
C514        C  0.65220474  0.17058145  0.47855530    -0.22600
H515        H  0.66449149  0.12585088  0.44435605     0.08500
C516        C  0.72801830  0.13203399  0.39959360     0.04800
C517        C  0.72966647  0.09950884  0.38783902    -0.19900
C518        C  0.69578426  0.06959609  0.37453429    -0.12100
C519        C  0.66069605  0.07412996  0.37112144     0.13500
C520        C  0.65923395  0.10674864  0.38279527    -0.22600
C521        C  0.76380213  0.16208896  0.41525233    -0.05600
H522        H  0.75641371  0.09589538  0.39055098     0.15100
C523        C  0.62427612  0.04517483  0.35541840    -0.15800
H524        H  0.63189533  0.10959207  0.38100765     0.09400
H525        H  0.67345006  0.16244248  0.48850011     0.07200
H526        H  0.62117129  0.14360882  0.47836223     0.08400
H527        H  0.65125787  0.19491527  0.48977203     0.07500
H528        H  0.68961277  0.19350917  0.36169955     0.02400
H529        H  0.74141689  0.21395843  0.37340473     0.02900
H530        H  0.71880129  0.24635364  0.37037605     0.06400
H531        H  0.78943399  0.15520632  0.41505269     0.05300
H532        H  0.75430495  0.16118698  0.43520734    -0.00400
H533        H  0.77512472  0.19326216  0.40766682     0.01000
H534        H  0.59720192  0.02905728  0.36777656     0.04700
H535        H  0.62930937  0.02234264  0.34519508     0.06600
H536        H  0.61765611  0.06259204  0.34087539     0.07500
C537        C  0.48398797  0.14734677  0.55894271    -0.22100
C538        C  0.47272886  0.16154829  0.58022563     0.09900
C539        C  0.49562878  0.20276464  0.58730466     0.10300
C540        C  0.52936127  0.22917681  0.57269391    -0.17000
C541        C  0.54067305  0.21526942  0.55111678    -0.27400
C542        C  0.51765072  0.17357949  0.54423393     0.18600
C543        C  0.43812239  0.13189563  0.59554239     0.12600
C544        C  0.48442502  0.21871447  0.61028360    -0.11800
H545        H  0.54673059  0.26098726  0.57802172     0.12900
C546        C  0.52894829  0.15598373  0.52204580    -0.22600
H547        H  0.46641177  0.11538244  0.55397073     0.08500
C548        C  0.39735156  0.12117573  0.58956514     0.04800
C549        C  0.36547494  0.09006294  0.60333384    -0.19900
C550        C  0.37369713  0.06895898  0.62242497    -0.12100
C551        C  0.41467775  0.08079597  0.62893417     0.13500
C552        C  0.44641520  0.11235487  0.61547287    -0.22600
C553        C  0.38759343  0.14180662  0.56825306    -0.05600
H554        H  0.33403607  0.08077088  0.59831811     0.15100
C555        C  0.42516100  0.06043909  0.65012108    -0.15800
H556        H  0.47788998  0.12107432  0.61997447     0.09400
H557        H  0.50939636  0.12241651  0.52082457     0.07200
H558        H  0.56115230  0.16268623  0.52402283     0.08400
H559        H  0.52485277  0.16891097  0.50405266     0.07500
H560        H  0.48602595  0.20241727  0.62744358     0.02400
H561        H  0.45289948  0.21389032  0.60807644     0.02900
H562        H  0.50539702  0.25176919  0.61312502     0.06400
H563        H  0.35416403  0.12976264  0.56606296     0.05300
H564        H  0.39938557  0.13681076  0.55016254    -0.00400
H565        H  0.40208136  0.17498360  0.57203129     0.01000
H566        H  0.45862535  0.07540056  0.65364348     0.04700
H567        H  0.41476259  0.02817278  0.64533006     0.06600
H568        H  0.41034093  0.06204696  0.66786884     0.07500
C569        C  0.48203771  0.32674213  0.43318971    -0.22100
C570        C  0.47580143  0.30795815  0.40948926     0.09900
C571        C  0.50175155  0.29308207  0.40141146     0.10300
C572        C  0.53349200  0.29712840  0.41749501    -0.17000
C573        C  0.53984331  0.31592587  0.44133296    -0.27400
C574        C  0.51331922  0.33039229  0.44946172     0.18600
C575        C  0.44110184  0.30372042  0.39393076     0.12600
C576        C  0.49612864  0.27337107  0.37582416    -0.11800
H577        H  0.55373318  0.28593334  0.41134310     0.12900
C578        C  0.51540984  0.34787659  0.47546446    -0.22600
H579        H  0.46154469  0.33766373  0.43931094     0.08500
C580        C  0.40187081  0.26966786  0.39649681     0.04800
C581        C  0.36855530  0.26973882  0.38430168    -0.19900
C582        C  0.37356649  0.30369475  0.37042372    -0.12100
C583        C  0.41328771  0.33683762  0.36674392     0.13500
C584        C  0.44662456  0.33639057  0.37860195    -0.22600
C585        C  0.39484284  0.23443348  0.41330065    -0.05600
H586        H  0.33805911  0.24456068  0.38727193     0.15100
C587        C  0.42151815  0.37325371  0.35073746    -0.15800
H588        H  0.47694670  0.36236523  0.37664584     0.09400
H589        H  0.48524067  0.33054463  0.48474852     0.07200
H590        H  0.52287556  0.38018143  0.47371652     0.08400
H591        H  0.53806143  0.34620606  0.48824819     0.07500
H592        H  0.49915541  0.29530547  0.36077013     0.02400
H593        H  0.46540833  0.24614657  0.37439383     0.02900
H594        H  0.51925367  0.26358028  0.37244469     0.06400
H595        H  0.36219243  0.21056012  0.41342883     0.05300
H596        H  0.40415114  0.24527919  0.43304601    -0.00400
H597        H  0.41302581  0.22036089  0.40653755     0.01000
H598        H  0.43412531  0.40091366  0.36282560     0.04700
H599        H  0.39384546  0.36985387  0.34083033     0.06600
H600        H  0.44420249  0.37756714  0.33597818     0.07500
C601        C  0.87349744  0.59026989  0.42699989    -0.22100
C602        C  0.85209236  0.55994099  0.40887212     0.09900
C603        C  0.86177905  0.56829613  0.38298149     0.10300
C604        C  0.89441583  0.60626833  0.37600498    -0.17000
C605        C  0.91755589  0.63541836  0.39442497    -0.27400
C606        C  0.90647581  0.62774203  0.42016840     0.18600
C607        C  0.82138434  0.51923648  0.41801362     0.12600
C608        C  0.83911844  0.53663125  0.36293330    -0.11800
H609        H  0.90335476  0.61235838  0.35632049     0.12900
C610        C  0.92927469  0.65800999  0.44096951    -0.22600
H611        H  0.86538270  0.58400430  0.44680717     0.08500
C612        C  0.83330037  0.49476669  0.43210852     0.04800
C613        C  0.80333900  0.45920673  0.44360802    -0.19900
C614        C  0.76163362  0.44732778  0.44131101    -0.12100
C615        C  0.74968566  0.47026695  0.42537034     0.13500
C616        C  0.77984393  0.50621792  0.41419612    -0.22600
C617        C  0.87766801  0.50620710  0.43511558    -0.05600
H618        H  0.81276601  0.44141641  0.45523339     0.15100
C619        C  0.70548216  0.45705888  0.41961518    -0.15800
H620        H  0.77101919  0.52494285  0.40303326     0.09400
H621        H  0.94286010  0.64490851  0.45428392     0.07200
H622        H  0.90772329  0.66469772  0.45150969     0.08400
H623        H  0.95408584  0.68733589  0.43382057     0.07500
H624        H  0.80641743  0.52848407  0.36272556     0.02400
H625        H  0.84170946  0.50898293  0.36690634     0.02900
H626        H  0.85156010  0.54781305  0.34376189     0.06400
H627        H  0.88140885  0.48274937  0.44580010     0.05300
H628        H  0.89454713  0.53534605  0.44558897    -0.00400
H629        H  0.89151638  0.50942134  0.41616113     0.01000
H630        H  0.68992176  0.45916634  0.43684889     0.04700
H631        H  0.68990409  0.42533212  0.41232577     0.06600
H632        H  0.70233734  0.47663741  0.40497344     0.07500
C633        C  0.66580483  0.53287867  0.62807287    -0.22100
C634        C  0.69629077  0.53766713  0.61107511     0.09900
C635        C  0.73112006  0.57631557  0.60811900     0.10300
C636        C  0.73284237  0.61008024  0.62048722    -0.17000
C637        C  0.70032366  0.60591000  0.63546720    -0.27400
C638        C  0.66749273  0.56656987  0.64047148     0.18600
C639        C  0.68837337  0.50338222  0.59401471     0.12600
C640        C  0.76583462  0.58205001  0.59134981    -0.11800
H641        H  0.75829516  0.64019018  0.61699010     0.12900
C642        C  0.63408491  0.55997475  0.65870350    -0.22600
H643        H  0.63945083  0.50300067  0.63053767     0.08500
C644        C  0.68976823  0.46856496  0.60241075     0.04800
C645        C  0.68158641  0.43715793  0.58510414    -0.19900
C646        C  0.67186507  0.43956135  0.55946926    -0.12100
C647        C  0.66990032  0.47469837  0.55134767     0.13500
C648        C  0.67795970  0.50578109  0.56881135    -0.22600
C649        C  0.70053602  0.46485852  0.62947946    -0.05600
H650        H  0.68314155  0.41069224  0.59174619     0.15100
C651        C  0.65965717  0.48050578  0.52448293    -0.15800
H652        H  0.67633615  0.53252560  0.56276719     0.09400
H653        H  0.61270385  0.52708081  0.66172016     0.07200
H654        H  0.61589500  0.57379240  0.65134142     0.08400
H655        H  0.64772437  0.57371515  0.67733314     0.07500
H656        H  0.75508149  0.57420571  0.57146763     0.02400
H657        H  0.77816901  0.56211430  0.59797424     0.02900
H658        H  0.79110730  0.61401784  0.59168629     0.06400
H659        H  0.70124346  0.43604348  0.63277626     0.05300
H660        H  0.67757372  0.46531719  0.64239368    -0.00400
H661        H  0.73115718  0.49062988  0.63424111     0.01000
H662        H  0.62876409  0.45569452  0.51921243     0.04700
H663        H  0.68286952  0.48104317  0.51134206     0.06600
H664        H  0.65941500  0.50971871  0.52202165     0.07500
C665        C  0.79284231  0.99067853  0.19769006    -0.22100
C666        C  0.83072622  0.00890208  0.18553233     0.09900
C667        C  0.83475973  0.02769956  0.16179324     0.10300
C668        C  0.80068706  0.02800183  0.15074247    -0.17000
C669        C  0.76251066  0.00924061  0.16268321    -0.27400
C670        C  0.75866479  0.99075936  0.18666170     0.18600
C671        C  0.86559881  0.00736840  0.19789082     0.12600
C672        C  0.87484413  0.04679181  0.14800065    -0.11800
H673        H  0.80359417  0.04210471  0.13238202     0.12900
C674        C  0.71957695  0.97203192  0.20156352    -0.22600
H675        H  0.79001886  0.97652402  0.21603469     0.08500
C676        C  0.89216311  0.03802336  0.21475363     0.04800
C677        C  0.92402273  0.03449443  0.22651041    -0.19900
C678        C  0.92953535  0.00061286  0.22221158    -0.12100
C679        C  0.90281107  0.97001046  0.20511341     0.13500
C680        C  0.87142812  0.97400715  0.19307783    -0.22600
C681        C  0.88661009  0.07420586  0.22047949    -0.05600
H682        H  0.94448634  0.05809864  0.23943968     0.15100
C683        C  0.90499389  0.93191556  0.19978421    -0.15800
H684        H  0.85071354  0.95041381  0.18019515     0.09400
H685        H  0.72541932  0.98679614  0.22046548     0.07200
H686        H  0.70863191  0.93903433  0.20419557     0.08400
H687        H  0.69489337  0.97572638  0.19243691     0.07500
H688        H  0.88409244  0.02342037  0.14422796     0.02400
H689        H  0.89881651  0.07149440  0.15967501     0.02900
H690        H  0.87274135  0.06002056  0.12958728     0.06400
H691        H  0.90958205  0.09500537  0.23445134     0.05300
H692        H  0.85575803  0.06378185  0.22838923    -0.00400
H693        H  0.88980373  0.09162714  0.20286737     0.01000
H694        H  0.87532971  0.90483092  0.20439347     0.04700
H695        H  0.92861940  0.92998452  0.21114402     0.06600
H696        H  0.91160994  0.93080495  0.17944085     0.07500
C697        C  0.00931340  0.80602998  0.19254605    -0.22100
C698        C  0.98291788  0.81978236  0.18371018     0.09900
C699        C  0.95468585  0.79853451  0.16415387     0.10300
C700        C  0.95327624  0.76344925  0.15394341    -0.17000
C701        C  0.98007907  0.74976436  0.16253421    -0.27400
C702        C  0.00846522  0.77138737  0.18218666     0.18600
C703        C  0.98511103  0.85606162  0.19590905     0.12600
C704        C  0.92646325  0.81316647  0.15397413    -0.11800
H705        H  0.93180497  0.74718038  0.13878661     0.12900
C706        C  0.03717417  0.75769178  0.19296327    -0.22600
H707        H  0.03065283  0.82256268  0.20772212     0.08500
C708        C  0.95863324  0.85261170  0.21571652     0.04800
C709        C  0.96491900  0.88773388  0.22847805    -0.19900
C710        C  0.99687468  0.92636994  0.22194377    -0.12100
C711        C  0.02252212  0.92990980  0.20141858     0.13500
C712        C  0.01650628  0.89452498  0.18887801    -0.22600
C713        C  0.92381835  0.81238214  0.22408779    -0.05600
H714        H  0.94438741  0.88488444  0.24363582     0.15100
C715        C  0.05747856  0.97027111  0.19330831    -0.15800
H716        H  0.03674552  0.89670732  0.17368081     0.09400
H717        H  0.05451127  0.77631808  0.20959037     0.07200
H718        H  0.05990915  0.76084924  0.17857553     0.08400
H719        H  0.01959565  0.72552180  0.19922306     0.07500
H720        H  0.94469234  0.84448846  0.14640217     0.02400
H721        H  0.90648993  0.81336358  0.16929384     0.02900
H722        H  0.90661100  0.79329260  0.13847348     0.06400
H723        H  0.92118731  0.78615218  0.21311831     0.05300
H724        H  0.92819435  0.80722811  0.24423913    -0.00400
H725        H  0.89461175  0.81295518  0.22198953     0.01000
H726        H  0.07631154  0.96648779  0.17856075     0.04700
H727        H  0.07770189  0.98579055  0.20966020     0.06600
H728        H  0.04602912  0.98992331  0.18510762     0.07500
C729        C  0.16999257  0.15281943  0.14880820    -0.22100
C730        C  0.16188968  0.16123238  0.17326806     0.09900
C731        C  0.18572153  0.20053145  0.18356468     0.10300
C732        C  0.21755128  0.23054065  0.16920090    -0.17000
C733        C  0.22618570  0.22208980  0.14481450    -0.27400
C734        C  0.20139940  0.18294366  0.13424094     0.18600
C735        C  0.12922296  0.12814179  0.18819085     0.12600
C736        C  0.17741021  0.21070800  0.20967800    -0.11800
H737        H  0.23615812  0.26066547  0.17716572     0.12900
C738        C  0.20580535  0.17229211  0.10739121    -0.22600
H739        H  0.15131389  0.12264988  0.14091484     0.08500
C740        C  0.08760235  0.11663614  0.18481327     0.04800
C741        C  0.05818316  0.08592318  0.20017318    -0.19900
C742        C  0.06953094  0.06665788  0.21887379    -0.12100
C743        C  0.11127794  0.07712424  0.22130822     0.13500
C744        C  0.14049254  0.10814044  0.20623872    -0.22600
C745        C  0.07445595  0.13732038  0.16535877    -0.05600
H746        H  0.02625722  0.07760319  0.19803341     0.15100
C747        C  0.12630007  0.05545284  0.23871021    -0.15800
H748        H  0.17246497  0.11657381  0.20839205     0.09400
H749        H  0.17608817  0.16065225  0.09728389     0.07200
H750        H  0.21483708  0.14824246  0.10743652     0.08400
H751        H  0.22847121  0.19868058  0.09647797     0.07500
H752        H  0.18130240  0.19112636  0.22394791     0.02400
H753        H  0.14564098  0.20552534  0.21052404     0.02900
H754        H  0.19853178  0.24296178  0.21475905     0.06400
H755        H  0.04085027  0.12506930  0.16538481     0.05300
H756        H  0.08335592  0.13260239  0.14618845    -0.00400
H757        H  0.08938258  0.17044824  0.16942888     0.01000
H758        H  0.14296636  0.04324105  0.22760854     0.04700
H759        H  0.10112325  0.02950659  0.24838513     0.06600
H760        H  0.14749954  0.07706149  0.25308498     0.07500
C761        C  0.16604122  0.48971886  0.93909320    -0.22100
C762        C  0.17918897  0.49011207  0.91435117     0.09900
C763        C  0.21534189  0.52379393  0.90581469     0.10300
C764        C  0.23818438  0.55614142  0.92255559    -0.17000
C765        C  0.22579576  0.55570652  0.94778369    -0.27400
C766        C  0.18868697  0.52176112  0.95600659     0.18600
C767        C  0.15334476  0.45513893  0.89771453     0.12600
C768        C  0.23011230  0.52521717  0.87919889    -0.11800
H769        H  0.26625042  0.58165585  0.91586213     0.12900
C770        C  0.17213905  0.51834255  0.98239010    -0.22600
H771        H  0.13774876  0.46382127  0.94521544     0.08500
C772        C  0.15107247  0.41683027  0.90102047     0.04800
C773        C  0.12120150  0.38297540  0.88769189    -0.19900
C774        C  0.09322286  0.38666107  0.87158604    -0.12100
C775        C  0.09775129  0.42570772  0.86680936     0.13500
C776        C  0.12756658  0.45939902  0.88011524    -0.22600
C777        C  0.17917372  0.41144821  0.91926965    -0.05600
H778        H  0.11770556  0.35309046  0.89135959     0.15100
C779        C  0.07121083  0.43281915  0.84814371    -0.15800
H780        H  0.12971039  0.48895578  0.87743594     0.09400
H781        H  0.19358045  0.51702978  0.99650380     0.07200
H782        H  0.14229918  0.49026176  0.98482237     0.08400
H783        H  0.16727545  0.54462545  0.98635138     0.07500
H784        H  0.20714624  0.52426614  0.86541542     0.02400
H785        H  0.23491505  0.49872771  0.87589133     0.02900
H786        H  0.25940913  0.55342640  0.87568464     0.06400
H787        H  0.17374400  0.37967398  0.91925021     0.05300
H788        H  0.17426736  0.41888535  0.93880539    -0.00400
H789        H  0.21140982  0.43191927  0.91386953     0.01000
H790        H  0.05247470  0.44359755  0.85833691     0.04700
H791        H  0.05062824  0.40518437  0.83712943     0.06600
H792        H  0.09086496  0.45642932  0.83431199     0.07500
C793        C  0.28397093  0.49206930  0.09291418    -0.22100
C794        C  0.30732573  0.47471202  0.08440122     0.09900
C795        C  0.33472606  0.49285249  0.06419864     0.10300
C796        C  0.33880572  0.52858338  0.05324445    -0.17000
C797        C  0.31501512  0.54577903  0.06135563    -0.27400
C798        C  0.28714931  0.52726645  0.08147403     0.18600
C799        C  0.30078202  0.43589809  0.09551764     0.12600
C800        C  0.35860501  0.47370612  0.05359740    -0.11800
H801        H  0.35963771  0.54236144  0.03759990     0.12900
C802        C  0.26121921  0.54468478  0.09125569    -0.22600
H803        H  0.26269728  0.47756462  0.10826008     0.08500
C804        C  0.32756472  0.43462014  0.11396482     0.04800
C805        C  0.32368904  0.39683609  0.12091827    -0.19900
C806        C  0.29310321  0.36050932  0.11017187    -0.12100
C807        C  0.26504620  0.36181774  0.09260075     0.13500
C808        C  0.26919377  0.39958652  0.08561076    -0.22600
C809        C  0.36023041  0.47308093  0.12611281    -0.05600
H810        H  0.34497782  0.39563525  0.13445122     0.15100
C811        C  0.23177704  0.32443080  0.07975253    -0.15800
H812        H  0.24871286  0.40084954  0.07145498     0.09400
H813        H  0.24319333  0.52770736  0.10801168     0.07200
H814        H  0.23924746  0.54284131  0.07641705     0.08400
H815        H  0.28100717  0.57691217  0.09695697     0.07500
H816        H  0.33723035  0.44254369  0.04665831     0.02400
H817        H  0.37875934  0.47189957  0.06844040     0.02900
H818        H  0.37807268  0.49149694  0.03751093     0.06400
H819        H  0.37833824  0.46662364  0.14031750     0.05300
H820        H  0.34584565  0.48895096  0.13586060    -0.00400
H821        H  0.38150107  0.49362937  0.11156502     0.01000
H822        H  0.20158673  0.32141348  0.08436444     0.04700
H823        H  0.23140712  0.29589771  0.08536383     0.06600
H824        H  0.23599450  0.32756149  0.05891934     0.07500
C825        C  0.31458859  0.86997939  0.88433545    -0.22100
C826        C  0.29782658  0.86371936  0.90864528     0.09900
C827        C  0.27987311  0.88696342  0.91694183     0.10300
C828        C  0.28070994  0.91733289  0.90107300    -0.17000
C829        C  0.29947288  0.92503084  0.87733496    -0.27400
C830        C  0.31567905  0.90052613  0.86855211     0.18600
C831        C  0.30177843  0.83439596  0.92555843     0.12600
C832        C  0.26047934  0.88010216  0.94263101    -0.11800
H833        H  0.26834287  0.93635573  0.90765035     0.12900
C834        C  0.33427811  0.90682106  0.84264550    -0.22600
H835        H  0.32794897  0.85168484  0.87803325     0.08500
C836        C  0.27631411  0.79208419  0.92282183     0.04800
C837        C  0.28329784  0.76554887  0.93815847    -0.19900
C838        C  0.31472668  0.78040720  0.95645082    -0.12100
C839        C  0.33963369  0.82293636  0.95956676     0.13500
C840        C  0.33295409  0.84940345  0.94392347    -0.22600
C841        C  0.24167960  0.77507163  0.90386850    -0.05600
H842        H  0.26397325  0.73295345  0.93594961     0.15100
C843        C  0.37425391  0.84056047  0.97854631    -0.15800
H844        H  0.35247370  0.88203310  0.94575280     0.09400
H845        H  0.34461571  0.88435694  0.83853105     0.07200
H846        H  0.36110309  0.93771833  0.84130542     0.08400
H847        H  0.31131247  0.90340080  0.82804694     0.07500
H848        H  0.28361635  0.88601159  0.95764610     0.02400
H849        H  0.23545638  0.84815596  0.94411656     0.02900
H850        H  0.24740625  0.90055411  0.94598612     0.06400
H851        H  0.22421822  0.74130077  0.90450894     0.05300
H852        H  0.25377147  0.78428214  0.88443557    -0.00400
H853        H  0.22032385  0.78682531  0.90800693     0.01000
H854        H  0.39568277  0.82873784  0.97485391     0.04700
H855        H  0.36212518  0.83227958  0.99803356     0.06600
H856        H  0.39174905  0.87430613  0.97748303     0.07500
C857        C  0.19285897  0.69843603  0.10139058    -0.22100
C858        C  0.15263255  0.67691158  0.09231531     0.09900
C859        C  0.14370417  0.65283170  0.07031993     0.10300
C860        C  0.17552439  0.65141003  0.05753967    -0.17000
C861        C  0.21613711  0.67364134  0.06615086    -0.27400
C862        C  0.22478429  0.69658096  0.08884768     0.18600
C863        C  0.12021800  0.68113877  0.10530544     0.12600
C864        C  0.10070029  0.62932918  0.06003233    -0.11800
H865        H  0.16875822  0.63364029  0.04028963     0.12900
C866        C  0.26657477  0.71808431  0.10103720    -0.22600
H867        H  0.19928974  0.71647622  0.11850400     0.08500
C868        C  0.09501310  0.65267799  0.12350454     0.04800
C869        C  0.06084827  0.65460121  0.13240553    -0.19900
C870        C  0.05197637  0.68475689  0.12375810    -0.12100
C871        C  0.07831906  0.71428673  0.10625190     0.13500
C872        C  0.11230711  0.71215512  0.09738862    -0.22600
C873        C  0.10400817  0.62018264  0.13323837    -0.05600
H874        H  0.04063806  0.63218433  0.14589527     0.15100
C875        C  0.07057122  0.74702470  0.09532293    -0.15800
H876        H  0.13182273  0.73380380  0.08330748     0.09400
H877        H  0.26445833  0.70764396  0.12094014     0.07200
H878        H  0.27805011  0.75142062  0.10103832     0.08400
H879        H  0.28921508  0.71185640  0.09164416     0.07500
H880        H  0.08900608  0.65058920  0.05534580     0.02400
H881        H  0.08052002  0.60712806  0.07433817     0.02900
H882        H  0.09916248  0.61220463  0.04258442     0.06400
H883        H  0.08136350  0.60055139  0.14754464     0.05300
H884        H  0.13477211  0.63463069  0.14224664    -0.00400
H885        H  0.10328166  0.60052003  0.11740233     0.01000
H886        H  0.09631197  0.77738313  0.10047298     0.04700
H887        H  0.04189220  0.74543018  0.10186877     0.06600
H888        H  0.06853924  0.74425051  0.07436167     0.07500
C889        C  0.58895761  0.86973463  0.10111213    -0.22100
C890        C  0.55132763  0.86770891  0.10596018     0.09900
C891        C  0.54994793  0.89754957  0.12133961     0.10300
C892        C  0.58659300  0.93027450  0.13023427    -0.17000
C893        C  0.62459997  0.93363751  0.12435827    -0.27400
C894        C  0.62577438  0.90249342  0.10992013     0.18600
C895        C  0.51428793  0.83650985  0.09270320     0.12600
C896        C  0.50982486  0.89514400  0.12797699    -0.11800
H897        H  0.58566972  0.95401366  0.14133464     0.12900
C898        C  0.66487095  0.90372091  0.10190207    -0.22600
H899        H  0.58974189  0.84664000  0.08925601     0.08500
C900        C  0.50171198  0.84531388  0.06934845     0.04800
C901        C  0.46635799  0.81524259  0.05734099    -0.19900
C902        C  0.44376148  0.77626947  0.06784097    -0.12100
C903        C  0.45620370  0.76756693  0.09140846     0.13500
C904        C  0.49148815  0.79785525  0.10348946    -0.22600
C905        C  0.52619211  0.88615584  0.05680107    -0.05600
H906        H  0.45706741  0.82174161  0.03918868     0.15100
C907        C  0.43252791  0.72729058  0.10472429    -0.15800
H908        H  0.50114230  0.79138114  0.12152388     0.09400
H909        H  0.66550094  0.90216097  0.08092316     0.07200
H910        H  0.66618179  0.87709580  0.10997330     0.08400
H911        H  0.69276788  0.93161626  0.10783628     0.07500
H912        H  0.49049520  0.86632586  0.13824999     0.02400
H913        H  0.49354016  0.89593552  0.11052414     0.02900
H914        H  0.51419151  0.92087552  0.14028011     0.06400
H915        H  0.51233717  0.88778939  0.03846005     0.05300
H916        H  0.55760631  0.89172354  0.05308775    -0.00400
H917        H  0.52789256  0.91064357  0.06924696     0.01000
H918        H  0.45176132  0.71244244  0.10655280     0.04700
H919        H  0.40375909  0.70613088  0.09482196     0.06600
H920        H  0.42419259  0.73247553  0.12395965     0.07500
C921        C  0.59285278  0.72565260  0.92194627    -0.22100
C922        C  0.55352802  0.69786576  0.91333162     0.09900
C923        C  0.54852157  0.67430522  0.89153772     0.10300
C924        C  0.58320552  0.67834195  0.87914558    -0.17000
C925        C  0.62267118  0.70544941  0.88804653    -0.27400
C926        C  0.62762971  0.72941750  0.90976775     0.18600
C927        C  0.51798213  0.69283983  0.92798742     0.12600
C928        C  0.50662142  0.64445029  0.88168181    -0.11800
H929        H  0.57955780  0.65955992  0.86273903     0.12900
C930        C  0.66868274  0.75737288  0.92153090    -0.22600
H931        H  0.59637990  0.74344459  0.93883071     0.08500
C932        C  0.50239675  0.66495859  0.94818089     0.04800
C933        C  0.46852264  0.66112817  0.96151143    -0.19900
C934        C  0.44971982  0.68442543  0.95504836    -0.12100
C935        C  0.46584162  0.71273822  0.93484481     0.13500
C936        C  0.49980389  0.71648400  0.92158523    -0.22600
C937        C  0.52154066  0.63928866  0.95562752    -0.05600
H938        H  0.45644072  0.63951481  0.97694964     0.15100
C939        C  0.44856194  0.74013858  0.92760510    -0.15800
H940        H  0.51237288  0.73800647  0.90613088     0.09400
H941        H  0.66909700  0.74830496  0.94151806     0.07200
H942        H  0.67413424  0.78913696  0.92115545     0.08400
H943        H  0.69424647  0.75651100  0.91181994     0.07500
H944        H  0.48957038  0.66077079  0.87675589     0.02400
H945        H  0.48955961  0.62126257  0.89636127     0.02900
H946        H  0.50820564  0.62839714  0.86446695     0.06400
H947        H  0.50554810  0.61901083  0.97184051     0.05300
H948        H  0.55393558  0.65924946  0.96122276    -0.00400
H949        H  0.52022147  0.61995007  0.93942262     0.01000
H950        H  0.46679854  0.76205194  0.91256702     0.04700
H951        H  0.44863369  0.75795750  0.94435248     0.06600
H952        H  0.41696812  0.72176975  0.92016616     0.07500
C953        C  0.46362969  0.09797877  0.86698172    -0.22100
C954        C  0.46317697  0.13058335  0.87939709     0.09900
C955        C  0.42683343  0.13310438  0.87983654     0.10300
C956        C  0.39100917  0.10154171  0.86913995    -0.17000
C957        C  0.39069516  0.06734549  0.85834585    -0.27400
C958        C  0.42789781  0.06646627  0.85621636     0.18600
C959        C  0.50012586  0.16019914  0.89344631     0.12600
C960        C  0.42534172  0.16797604  0.89279446    -0.11800
H961        H  0.36258248  0.10226726  0.87080609     0.12900
C962        C  0.43100942  0.03285718  0.84272889    -0.22600
H963        H  0.49183714  0.09663901  0.86622717     0.08500
C964        C  0.50982767  0.15061421  0.91744175     0.04800
C965        C  0.54269951  0.18071051  0.93128086    -0.19900
C966        C  0.56616664  0.22052503  0.92187397    -0.12100
C967        C  0.55719347  0.22948132  0.89716874     0.13500
C968        C  0.52430077  0.19906130  0.88334662    -0.22600
C969        C  0.48464841  0.10895498  0.92884435    -0.05600
H970        H  0.54943108  0.17316220  0.94988059     0.15100
C971        C  0.58079453  0.27102865  0.88530487    -0.15800
H972        H  0.51659045  0.20585678  0.86479818     0.09400
H973        H  0.43921640  0.01562252  0.85651212     0.07200
H974        H  0.45514824  0.04622530  0.82812034     0.08400
H975        H  0.40232465  0.01150183  0.83280905     0.07500
H976        H  0.44670579  0.19706023  0.88345774     0.02400
H977        H  0.43420183  0.16924755  0.91303101     0.02900
H978        H  0.39427682  0.16471872  0.89193321     0.06400
H979        H  0.49589297  0.10683239  0.94801334     0.05300
H980        H  0.48602045  0.08568903  0.91664720    -0.00400
H981        H  0.45238745  0.10201578  0.93053075     0.01000
H982        H  0.61326290  0.27900685  0.88304855     0.04700
H983        H  0.57857305  0.29408553  0.89725894     0.06600
H984        H  0.56875478  0.27218649  0.86620324     0.07500
C985        C  0.47327294  0.31185552  0.03850186    -0.22100
C986        C  0.45831335  0.28165696  0.05720207     0.09900
C987        C  0.47787171  0.25825813  0.06147055     0.10300
C988        C  0.51344323  0.26727490  0.04788664    -0.17000
C989        C  0.53018163  0.29949027  0.03032672    -0.27400
C990        C  0.50898710  0.32130990  0.02511062     0.18600
C991        C  0.42422203  0.27786502  0.07323831     0.12600
C992        C  0.46190242  0.22467255  0.08083589    -0.11800
H993        H  0.52901464  0.24992359  0.05164094     0.12900
C994        C  0.52324195  0.35420498  0.00525502    -0.22600
H995        H  0.45753536  0.32913430  0.03500731     0.08500
C996        C  0.43077761  0.30833619  0.09111526     0.04800
C997        C  0.39728377  0.30717829  0.10346954    -0.19900
C998        C  0.35729760  0.27588452  0.09881868    -0.12100
C999        C  0.35093264  0.24393477  0.08207854     0.13500
C1000       C  0.38454149  0.24547186  0.06933951    -0.22600
C1001       C  0.47318320  0.34231475  0.09706270    -0.05600
H1002       H  0.40224186  0.33142386  0.11648898     0.15100
C1003       C  0.30874405  0.20943148  0.07655663    -0.15800
H1004       H  0.37971939  0.22210541  0.05564619     0.09400
H1005       H  0.55282189  0.38054168  0.01104938     0.07200
H1006       H  0.50119653  0.36564390  0.00249508     0.08400
H1007       H  0.52657743  0.34205086  0.98681743     0.07500
H1008       H  0.43042359  0.20110116  0.07557729     0.02400
H1009       H  0.46149676  0.23722166  0.09976848     0.02900
H1010       H  0.48115790  0.20977076  0.08212415     0.06400
H1011       H  0.47294467  0.36274449  0.11211865     0.05300
H1012       H  0.48697743  0.36105513  0.07995056    -0.00400
H1013       H  0.49258629  0.32932287  0.10372350     0.01000
H1014       H  0.28922688  0.22161269  0.06884242     0.04700
H1015       H  0.29515760  0.19214425  0.09418936     0.06600
H1016       H  0.30926238  0.18785749  0.06244645     0.07500
C1017       C  0.70173258  0.49809638  0.89465702    -0.22100
C1018       C  0.68382901  0.52038582  0.90400696     0.09900
C1019       C  0.66168701  0.50843164  0.92679718     0.10300
C1020       C  0.65710289  0.47370814  0.93942267    -0.17000
C1021       C  0.67466292  0.45078829  0.93012061    -0.27400
C1022       C  0.69802080  0.46376687  0.90753450     0.18600
C1023       C  0.68814386  0.55609935  0.88971330     0.12600
C1024       C  0.64357523  0.53278096  0.93815028    -0.11800
H1025       H  0.63965136  0.46453313  0.95676044     0.12900
C1026       C  0.72025296  0.44278168  0.89707110    -0.22600
H1027       H  0.71881401  0.50776741  0.87718592     0.08500
C1028       C  0.72514763  0.59334113  0.88951135     0.04800
C1029       C  0.72549927  0.62799697  0.87929931    -0.19900
C1030       C  0.68958929  0.62608386  0.86966674    -0.12100
C1031       C  0.65359579  0.58787587  0.86774012     0.13500
C1032       C  0.65338848  0.55340525  0.87785641    -0.22600
C1033       C  0.76352113  0.59706162  0.90135654    -0.05600
H1034       H  0.75312959  0.65722272  0.88060567     0.15100
C1035       C  0.61473411  0.58237516  0.85548831    -0.15800
H1036       H  0.62537921  0.52439493  0.87737744     0.09400
H1037       H  0.73870044  0.45878054  0.88022313     0.07200
H1038       H  0.69803402  0.41133943  0.89106715     0.08400
H1039       H  0.74149398  0.44216681  0.91163748     0.07500
H1040       H  0.62001708  0.53265513  0.92524558     0.02400
H1041       H  0.66800652  0.56464181  0.94136939     0.02900
H1042       H  0.62878660  0.52009667  0.95660565     0.06400
H1043       H  0.78933559  0.62868135  0.90024602     0.05300
H1044       H  0.77267179  0.57691464  0.89134293    -0.00400
H1045       H  0.75816142  0.58823912  0.92162497     0.01000
H1046       H  0.60451003  0.55827871  0.84077079     0.04700
H1047       H  0.61856044  0.61025687  0.84592984     0.06600
H1048       H  0.59051678  0.57296802  0.86999348     0.07500
C1049       C  0.85958471  0.34737251  0.93114673    -0.22100
C1050       C  0.84961698  0.32724539  0.90777225     0.09900
C1051       C  0.81032629  0.31312602  0.89737006     0.10300
C1052       C  0.78133026  0.31857327  0.91096059    -0.17000
C1053       C  0.79055777  0.33768063  0.93489697    -0.27400
C1054       C  0.83076502  0.35297116  0.94487375     0.18600
C1055       C  0.88119027  0.32167596  0.89452820     0.12600
C1056       C  0.79905960  0.29216236  0.87198499    -0.11800
H1057       H  0.75092839  0.30693444  0.90298654     0.12900
C1058       C  0.84417591  0.37583506  0.96963118    -0.22600
H1059       H  0.89019917  0.35860513  0.93872351     0.08500
C1060       C  0.91075526  0.35280157  0.87940240     0.04800
C1061       C  0.94226726  0.34774774  0.86903428    -0.19900
C1062       C  0.94518396  0.31241730  0.87360600    -0.12100
C1063       C  0.91472203  0.28063234  0.88817174     0.13500
C1064       C  0.88294522  0.28566897  0.89838970    -0.22600
C1065       C  0.90957644  0.39173659  0.87473552    -0.05600
H1066       H  0.96562074  0.37216918  0.85794028     0.15100
C1067       C  0.91675194  0.24251133  0.89426785    -0.15800
H1068       H  0.86006157  0.26200661  0.91013508     0.09400
H1069       H  0.83846601  0.40214928  0.96922316     0.07200
H1070       H  0.87730976  0.38785917  0.97331410     0.08400
H1071       H  0.82755086  0.35533781  0.98559549     0.07500
H1072       H  0.80216157  0.26430139  0.87264819     0.02400
H1073       H  0.81960678  0.31291218  0.85720902     0.02900
H1074       H  0.76710276  0.28313370  0.86647081     0.06400
H1075       H  0.93497799  0.41290423  0.86240377     0.05300
H1076       H  0.91222875  0.40740662  0.89300124    -0.00400
H1077       H  0.88031868  0.38487127  0.86532585     0.01000
H1078       H  0.94599472  0.25050970  0.90413395     0.04700
H1079       H  0.91443002  0.22567066  0.87656285     0.06600
H1080       H  0.89139247  0.22180910  0.90678704     0.07500
C1081       C  0.76861861  0.49418641  0.08473337    -0.22100
C1082       C  0.80979583  0.51774510  0.07822983     0.09900
C1083       C  0.82453337  0.50803150  0.05630276     0.10300
C1084       C  0.79777537  0.47466601  0.04144741    -0.17000
C1085       C  0.75652798  0.45056247  0.04794817    -0.27400
C1086       C  0.74178534  0.46029765  0.07009156     0.18600
C1087       C  0.83814467  0.55060483  0.09544058     0.12600
C1088       C  0.86856771  0.53299164  0.04855180    -0.11800
H1089       H  0.80912419  0.46749420  0.02448527     0.12900
C1090       C  0.69892118  0.43474943  0.07978447    -0.22600
H1091       H  0.75769455  0.50146167  0.10184518     0.08500
C1092       C  0.84407250  0.59055042  0.09382510     0.04800
C1093       C  0.87645304  0.62195725  0.10743041    -0.19900
C1094       C  0.90323083  0.61413903  0.12217507    -0.12100
C1095       C  0.89519569  0.57351148  0.12523607     0.13500
C1096       C  0.86254535  0.54222833  0.11191747    -0.22600
C1097       C  0.81734344  0.60017282  0.07695130    -0.05600
H1098       H  0.88241716  0.65302948  0.10527096     0.15100
C1099       C  0.92092903  0.56287339  0.14243655    -0.15800
H1100       H  0.85722925  0.51127499  0.11334145     0.09400
H1101       H  0.68270598  0.45278394  0.07923743     0.07200
H1102       H  0.70019699  0.42580783  0.09969609     0.08400
H1103       H  0.68080167  0.40621443  0.06903775     0.07500
H1104       H  0.88887294  0.53171845  0.06352233     0.02400
H1105       H  0.87609658  0.56512521  0.04561261     0.02900
H1106       H  0.87485089  0.52164565  0.03066800     0.06400
H1107       H  0.82626254  0.63296408  0.07772930     0.05300
H1108       H  0.78507187  0.58226314  0.08305416    -0.00400
H1109       H  0.81981799  0.59229872  0.05703494     0.01000
H1110       H  0.90832706  0.52942298  0.14391478     0.04700
H1111       H  0.92185411  0.57488208  0.16175476     0.06600
H1112       H  0.95241760  0.57581485  0.13507029     0.07500
C1113       C  0.71545015  0.21595140  0.08130677    -0.22100
C1114       C  0.69098259  0.17424449  0.07678670     0.09900
C1115       C  0.66206529  0.16078305  0.05685226     0.10300
C1116       C  0.65870596  0.18949607  0.04152946    -0.17000
C1117       C  0.68378735  0.23148196  0.04551225    -0.27400
C1118       C  0.71237618  0.24488609  0.06593944     0.18600
C1119       C  0.69668174  0.14488360  0.09264106     0.12600
C1120       C  0.63527824  0.11607014  0.05146076    -0.11800
H1121       H  0.63681793  0.17899190  0.02601045     0.12900
C1122       C  0.73916868  0.28935827  0.07217412    -0.22600
H1123       H  0.73733656  0.22582885  0.09682537     0.08500
C1124       C  0.72844011  0.13592903  0.08786069     0.04800
C1125       C  0.72991724  0.10453656  0.10144847    -0.19900
C1126       C  0.69986931  0.08155073  0.11927762    -0.12100
C1127       C  0.66925404  0.09195280  0.12492140     0.13500
C1128       C  0.66814332  0.12361790  0.11153852    -0.22600
C1129       C  0.75951473  0.15818241  0.06759428    -0.05600
H1130       H  0.75317322  0.09633010  0.09708204     0.15100
C1131       C  0.63725927  0.07026445  0.14483426    -0.15800
H1132       H  0.64410833  0.13099369  0.11533276     0.09400
H1133       H  0.76123406  0.30482288  0.05669291     0.07200
H1134       H  0.75725072  0.29371350  0.08979653     0.08400
H1135       H  0.72002219  0.30405790  0.07502000     0.07500
H1136       H  0.61578520  0.10089001  0.06807882     0.02400
H1137       H  0.65456573  0.10188044  0.04743723     0.02900
H1138       H  0.61489686  0.11079677  0.03485638     0.06400
H1139       H  0.78174853  0.14683483  0.06592352     0.05300
H1140       H  0.77676860  0.19114463  0.07215906    -0.00400
H1141       H  0.74385673  0.15394278  0.04900382     0.01000
H1142       H  0.63850020  0.09273934  0.15889494     0.04700
H1143       H  0.64162877  0.04713136  0.15535519     0.06600
H1144       H  0.60650811  0.05503795  0.13580517     0.07500
C1145       C  0.89429184  0.87315907  0.80918959    -0.22100
C1146       C  0.85516283  0.86741472  0.80378042     0.09900
C1147       C  0.85055893  0.89381109  0.78667650     0.10300
C1148       C  0.88521020  0.92462798  0.77488769    -0.17000
C1149       C  0.92441468  0.92970578  0.77957228    -0.27400
C1150       C  0.92903300  0.90393123  0.79727309     0.18600
C1151       C  0.81974931  0.83317262  0.81613436     0.12600
C1152       C  0.80964577  0.88999700  0.78007856    -0.11800
H1153       H  0.88152102  0.94447054  0.76145876     0.12900
C1154       C  0.96985054  0.90694006  0.80271878    -0.22600
H1155       H  0.89746660  0.85282882  0.82244669     0.08500
C1156       C  0.80368918  0.79292463  0.80725940     0.04800
C1157       C  0.77072997  0.76129395  0.81992955    -0.19900
C1158       C  0.75332766  0.76888328  0.84131968    -0.12100
C1159       C  0.76959479  0.80950649  0.85013259     0.13500
C1160       C  0.80256800  0.84108289  0.83733895    -0.22600
C1161       C  0.82122529  0.78345715  0.78433312    -0.05600
H1162       H  0.75840898  0.73038976  0.81301583     0.15100
C1163       C  0.75390947  0.81987123  0.87358056    -0.15800
H1164       H  0.81542343  0.87217085  0.84404193     0.09400
H1165       H  0.98270002  0.90291043  0.78490564     0.07200
H1166       H  0.96728237  0.88300272  0.81610532     0.08400
H1167       H  0.99103560  0.93675121  0.81135793     0.07500
H1168       H  0.80935863  0.91822276  0.78579863     0.02400
H1169       H  0.78380888  0.86387309  0.78946930     0.02900
H1170       H  0.80448919  0.88600393  0.75931850     0.06400
H1171       H  0.80455052  0.75053007  0.77955887     0.05300
H1172       H  0.85373995  0.79234377  0.78786253    -0.00400
H1173       H  0.81918591  0.80062898  0.76780714     0.01000
H1174       H  0.75617481  0.80244940  0.88992028     0.04700
H1175       H  0.72177305  0.81278808  0.87068589     0.06600
H1176       H  0.77192055  0.85273811  0.87835548     0.07500
C1177       C  0.98378658  0.10211576  0.81104774    -0.22100
C1178       C  0.01734921  0.14013794  0.80565486     0.09900
C1179       C  0.04632735  0.14289377  0.78773461     0.10300
C1180       C  0.04038075  0.10755531  0.77520617    -0.17000
C1181       C  0.00555291  0.06971964  0.77952630    -0.27400
C1182       C  0.97696309  0.06704208  0.79784836     0.18600
C1183       C  0.01868779  0.17666348  0.81713164     0.12600
C1184       C  0.08317690  0.18265441  0.78088201    -0.11800
H1185       H  0.06255475  0.10975943  0.76137286     0.12900
C1186       C  0.93760871  0.02870312  0.80291527    -0.22600
H1187       H  0.96142955  0.10023211  0.82464737     0.08500
C1188       C  0.99610411  0.19399181  0.80642608     0.04800
C1189       C  0.99680831  0.22771474  0.81818839    -0.19900
C1190       C  0.01994609  0.24483067  0.84027969    -0.12100
C1191       C  0.04245712  0.22723743  0.85110500     0.13500
C1192       C  0.04167292  0.19344489  0.83925948    -0.22600
C1193       C  0.97169743  0.17709917  0.78238401    -0.05600
H1194       H  0.97964402  0.24119628  0.80989022     0.15100
C1195       C  0.06622873  0.24201549  0.87557082    -0.15800
H1196       H  0.05860378  0.17969739  0.84753839     0.09400
H1197       H  0.91153266  0.03467021  0.80056424     0.07200
H1198       H  0.93780909  0.01826686  0.82257514     0.08400
H1199       H  0.93226833  0.00411452  0.78968373     0.07500
H1200       H  0.11133941  0.18084902  0.78498923     0.02400
H1201       H  0.08510347  0.20891920  0.79148372     0.02900
H1202       H  0.08212535  0.18854232  0.76035813     0.06400
H1203       H  0.95634503  0.19458577  0.77627248     0.05300
H1204       H  0.94783301  0.14497310  0.78528320    -0.00400
H1205       H  0.99229518  0.17846696  0.76697475     0.01000
H1206       H  0.05517323  0.21641615  0.88924854     0.04700
H1207       H  0.06294396  0.26665734  0.88474342     0.06600
H1208       H  0.09913297  0.25321164  0.87196455     0.07500
C1209       C  0.11422048  0.96638756  0.78464947    -0.22100
C1210       C  0.13774087  0.99944242  0.80056848     0.09900
C1211       C  0.12470212  0.02810494  0.80575632     0.10300
C1212       C  0.08911547  0.02377810  0.79396649    -0.17000
C1213       C  0.06627762  0.99146217  0.77725617    -0.27400
C1214       C  0.07823128  0.96147430  0.77332818     0.18600
C1215       C  0.17486171  0.00188310  0.81218808     0.12600
C1216       C  0.14768243  0.06359151  0.82343219    -0.11800
H1217       H  0.07996388  0.04665753  0.79714177     0.12900
C1218       C  0.05379819  0.92365597  0.75771353    -0.22600
H1219       H  0.12384531  0.94390341  0.78126465     0.08500
C1220       C  0.17249523  0.98030372  0.83449410     0.04800
C1221       C  0.20781281  0.98105154  0.84405472    -0.19900
C1222       C  0.24560869  0.00292733  0.83184605    -0.12100
C1223       C  0.24798222  0.02501459  0.80951971     0.13500
C1224       C  0.21240946  0.02409744  0.79995240    -0.22600
C1225       C  0.13254313  0.95623366  0.84806984    -0.05600
H1226       H  0.20582829  0.96429131  0.86119307     0.15100
C1227       C  0.28722962  0.04811282  0.79507421    -0.15800
H1228       H  0.21365235  0.04021485  0.78264051     0.09400
H1229       H  0.04567893  0.89638606  0.76957262     0.07200
H1230       H  0.07231225  0.92335992  0.74150497     0.08400
H1231       H  0.02499655  0.92116376  0.75036440     0.07500
H1232       H  0.17534744  0.06449729  0.83176955     0.02400
H1233       H  0.12743127  0.06169715  0.83920524     0.02900
H1234       H  0.15730846  0.09246959  0.81299015     0.06400
H1235       H  0.13605863  0.94132490  0.86536676     0.05300
H1236       H  0.10999221  0.93215068  0.83537062    -0.00400
H1237       H  0.12054876  0.97676874  0.85378720     0.01000
H1238       H  0.28268745  0.06132443  0.77729822     0.04700
H1239       H  0.29926318  0.02737064  0.78993256     0.06600
H1240       H  0.31013707  0.07364131  0.80675218     0.07500
C1241       C  0.83645902  0.79862982  0.66825491    -0.22100
C1242       C  0.82860178  0.81934997  0.68752670     0.09900
C1243       C  0.78826403  0.80464905  0.69604016     0.10300
C1244       C  0.75664387  0.76925285  0.68516991    -0.17000
C1245       C  0.76447260  0.74790334  0.66624010    -0.27400
C1246       C  0.80487416  0.76293053  0.65750360     0.18600
C1247       C  0.86323836  0.85556372  0.69919959     0.12600
C1248       C  0.77866544  0.82577514  0.71692925    -0.11800
H1249       H  0.72563611  0.75784110  0.69172071     0.12900
C1250       C  0.81473409  0.74240278  0.63635228    -0.22600
H1251       H  0.86753362  0.81040622  0.66173242     0.08500
C1252       C  0.89010189  0.85156241  0.71633002     0.04800
C1253       C  0.92124616  0.88642497  0.72791240    -0.19900
C1254       C  0.92576216  0.92515877  0.72319002    -0.12100
C1255       C  0.89874759  0.92912619  0.70603226     0.13500
C1256       C  0.86821225  0.89425652  0.69391872    -0.22600
C1257       C  0.88530664  0.81046562  0.72290134    -0.05600
H1258       H  0.94186923  0.88342484  0.74115256     0.15100
C1259       C  0.89962087  0.96893982  0.70104065    -0.15800
H1260       H  0.84724799  0.89707138  0.68086290     0.09400
H1261       H  0.84743209  0.75975781  0.63099692     0.07200
H1262       H  0.79605344  0.73994487  0.61933217     0.08400
H1263       H  0.80842399  0.71161450  0.64234075     0.07500
H1264       H  0.78673136  0.85710080  0.71100689     0.02400
H1265       H  0.79642101  0.82725615  0.73416991     0.02900
H1266       H  0.74573098  0.80948662  0.72180830     0.06400
H1267       H  0.90792935  0.81278496  0.73744723     0.05300
H1268       H  0.85427419  0.79051194  0.73046045    -0.00400
H1269       H  0.88976839  0.79614986  0.70576025     0.01000
H1270       H  0.90619391  0.97709070  0.68074615     0.04700
H1271       H  0.92268861  0.99416974  0.71261348     0.06600
H1272       H  0.86941776  0.96592648  0.70563178     0.07500
C1273       C  0.96986713  0.16129500  0.66381657    -0.22100
C1274       C  0.99915682  0.16837367  0.68261334     0.09900
C1275       C  0.02977213  0.20860159  0.68790121     0.10300
C1276       C  0.03044240  0.24087928  0.67415048    -0.17000
C1277       C  0.00083592  0.23412809  0.65545607    -0.27400
C1278       C  0.96997026  0.19355299  0.65029198     0.18600
C1279       C  0.99753209  0.13314559  0.69631109     0.12600
C1280       C  0.06115899  0.21759641  0.70847421    -0.11800
H1281       H  0.05397212  0.27172651  0.67835281     0.12900
C1282       C  0.93753560  0.18352253  0.63026886    -0.22600
H1283       H  0.94671964  0.13021547  0.65975803     0.08500
C1284       C  0.96729852  0.11123761  0.71451585     0.04800
C1285       C  0.96777863  0.07871472  0.72730598    -0.19900
C1286       C  0.99801430  0.06782682  0.72251730    -0.12100
C1287       C  0.02840991  0.09006459  0.70436027     0.13500
C1288       C  0.02740942  0.12206664  0.69126952    -0.22600
C1289       C  0.93508897  0.12268025  0.72080531    -0.05600
H1290       H  0.94459229  0.06180052  0.74129743     0.15100
C1291       C  0.06328897  0.08193512  0.69962085    -0.15800
H1292       H  0.05053923  0.13913621  0.67728207     0.09400
H1293       H  0.91706846  0.19557839  0.63596752     0.07200
H1294       H  0.91811926  0.15015602  0.62763807     0.08400
H1295       H  0.95194646  0.19669685  0.61181060     0.07500
H1296       H  0.07995833  0.20307918  0.70398186     0.02400
H1297       H  0.04551662  0.20568846  0.72679947     0.02900
H1298       H  0.08211535  0.25079282  0.71065639     0.06400
H1299       H  0.91497338  0.10358391  0.73630335     0.05300
H1300       H  0.91566324  0.11857370  0.70390534    -0.00400
H1301       H  0.94982890  0.15497852  0.72693694     0.01000
H1302       H  0.05187224  0.05137323  0.69117230     0.04700
H1303       H  0.07953509  0.08429555  0.71771514     0.06600
H1304       H  0.08578126  0.10428554  0.68623650     0.07500
C1305       C  0.18751001  0.02153122  0.66333557    -0.22100
C1306       C  0.16840047  0.99622981  0.68403880     0.09900
C1307       C  0.18325157  0.97082630  0.69354521     0.10300
C1308       C  0.21727898  0.97149153  0.68213477    -0.17000
C1309       C  0.23719023  0.99742145  0.66162438    -0.27400
C1310       C  0.22177838  0.02260244  0.65198766     0.18600
C1311       C  0.13348109  0.99761926  0.69594272     0.12600
C1312       C  0.16339872  0.94342084  0.71590810    -0.11800
H1313       H  0.22884438  0.95216402  0.68958916     0.12900
C1314       C  0.24028672  0.04982603  0.62935055    -0.22600
H1315       H  0.17565900  0.04079848  0.65618135     0.08500
C1316       C  0.13975362  0.02658628  0.71475206     0.04800
C1317       C  0.10590825  0.02589469  0.72622069    -0.19900
C1318       C  0.06576707  0.99597089  0.72010089    -0.12100
C1319       C  0.05951173  0.96780373  0.70047790     0.13500
C1320       C  0.09361099  0.96910969  0.68865034    -0.22600
C1321       C  0.18217548  0.05746055  0.72323966    -0.05600
H1322       H  0.11085722  0.04811807  0.74077721     0.15100
C1323       C  0.01749577  0.93499955  0.69269001    -0.15800
H1324       H  0.08926215  0.94716270  0.67401613     0.09400
H1325       H  0.27154074  0.07444462  0.63401827     0.07200
H1326       H  0.22221276  0.06464043  0.62334935     0.08400
H1327       H  0.24132939  0.03168577  0.61310711     0.07500
H1328       H  0.13100298  0.92157849  0.71131898     0.02400
H1329       H  0.16460472  0.96189775  0.73258758     0.02900
H1330       H  0.17895301  0.92572369  0.72109895     0.06400
H1331       H  0.18158510  0.07752578  0.73843188     0.05300
H1332       H  0.19938645  0.07686694  0.70699737    -0.00400
H1333       H  0.19845951  0.04164698  0.73075077     0.01000
H1334       H  0.99997064  0.94854770  0.68395695     0.04700
H1335       H  0.00093227  0.91646968  0.70928335     0.06600
H1336       H  0.01892491  0.91408025  0.67844519     0.07500
loop_ 
_geom_bond_atom_site_label_1 
_geom_bond_atom_site_label_2 
_geom_bond_distance 
_geom_bond_site_symmetry_2 
_ccdc_geom_bond_type 
C1            H2   1.109       .  S
C1            C7   1.541   1_655  S
C1            C6   1.539   1_565  S
C1            C5   1.536       .  S
C3            H4   1.107       .  S
C3            C9   1.539   1_565  S
C3            C8   1.539       .  S
C3           C10   1.538   1_655  S
C5            C8   1.373       .  D
C5         C1149   1.494       .  S
C6            C9   1.374       .  D
C6         C1181   1.492   1_655  S
C7           C10   1.380       .  D
C7         C1213   1.488       .  S
C8         C1254   1.486       .  S
C9         C1286   1.492       .  S
C10        C1318   1.496       .  S
O11          C27   1.278       .  A
O11         Zn17   2.030   1_554  S
C12          O28   1.275       .  A
C12          O25   1.276       .  A
C12         C989   1.490       .  S
O13          C26   1.273       .  A
O13         Cd20   2.063       .  S
O14          C32   1.276       .  A
O14         Cd23   2.067       .  S
O15          C29   1.276       .  A
O15         Cd19   2.071       .  S
O16          C27   1.272       .  A
O16         Cd19   2.054       .  S
Zn17         O28   2.031   1_556  S
Zn17         O30   2.027       .  S
Zn17         O22   1.942       .  S
O18          C29   1.275       .  A
O18         Cd23   2.074   1_554  S
Cd19         O21   2.073   1_554  S
Cd19         O22   1.987   1_554  S
Cd20         O24   2.071       .  S
Cd20         O33   2.060       .  S
Cd20         O22   1.993       .  S
O21          C31   1.274       .  A
O22         Cd23   1.993       .  S
Cd23         O25   2.076   1_556  S
O24          C31   1.275       .  A
C26          O30   1.277       .  A
C26         C966   1.494       .  S
C27        C1117   1.486       .  S
C29        C1085   1.482       .  S
C31        C1053   1.493       .  S
C32          O33   1.273       .  A
C32        C1021   1.489       .  S
C34        C1158   1.487       .  S
C34          N35   1.363       .  A
C34          N39   1.363       .  A
N35          C36   1.358       .  A
C36        C1030   1.474       .  S
C36          N37   1.353       .  A
N37          C38   1.351       .  A
C38         C925   1.470       .  S
C38          N39   1.359       .  A
O40          C56   1.276       .  A
O40         Zn46   2.031       .  S
C41          O57   1.277       .  A
C41          O54   1.275       .  A
C41         C902   1.478       .  S
O42          C55   1.274       .  A
O42         Cd49   2.064       .  S
O43          C61   1.276       .  A
O43         Cd52   2.071   1_556  S
O44          C58   1.272       .  A
O44         Cd48   2.058       .  S
O45          C56   1.273       .  A
O45         Cd48   2.052       .  S
Zn46         O57   2.033       .  S
Zn46         O59   2.031   1_554  S
Zn46         O51   1.944       .  S
O47          C58   1.276       .  A
O47         Cd52   2.075       .  S
Cd48         O50   2.063   1_554  S
Cd48         O51   1.986       .  S
Cd49         O53   2.074       .  S
Cd49         O62   2.067       .  S
Cd49         O51   1.993   1_556  S
O50          C60   1.272       .  A
O51         Cd52   1.993       .  S
Cd52         O54   2.068       .  S
O53          C60   1.276       .  A
C55          O59   1.276       .  A
C55         C838   1.479       .  S
C56         C861   1.478       .  S
C58         C797   1.479       .  S
C60         C765   1.497       .  S
C61          O62   1.274       .  A
C61         C934   1.484       .  S
C63         C733   1.479       .  S
C63          N64   1.364       .  A
C63          N68   1.359       .  A
N64          C65   1.362       .  A
C65         C998   1.484       .  S
C65          N66   1.358       .  A
N66          C67   1.355       .  A
C67         C806   1.471       .  S
C67          N68   1.356       .  A
C69        C1222   1.484       .  S
C69          N70   1.362       .  A
C69          N74   1.361   1_545  A
N70          C71   1.361       .  A
C71         C957   1.477       .  S
C71          N72   1.356   1_545  A
N72          C73   1.353       .  A
C73         C829   1.468       .  S
C73          N74   1.355       .  A
C75         C701   1.480       .  S
C75          N76   1.364       .  A
C75          N80   1.357   1_655  A
N76          C77   1.362       .  A
C77        C1094   1.478       .  S
C77          N78   1.356       .  A
N78          C79   1.353   1_655  A
C79         C870   1.468       .  S
C79          N80   1.353       .  A
C81        C1190   1.479       .  S
C81          N82   1.363       .  A
C81          N86   1.363   1_455  A
N82          C83   1.359       .  A
C83         C774   1.475       .  S
C83          N84   1.353       .  A
N84          C85   1.352   1_455  A
C85        C1062   1.481       .  S
C85          N86   1.359       .  A
C87         C669   1.478       .  S
C87          N88   1.361       .  A
C87          N92   1.362   1_545  A
N88          C89   1.359       .  A
C89        C1126   1.473       .  S
C89          N90   1.355       .  A
N90          C91   1.355   1_545  A
C91         C893   1.478       .  S
C91          N92   1.360       .  A
O93         C109   1.272       .  A
O93         Zn99   2.011       .  S
C94         O110   1.276       .  A
C94         O107   1.272       .  A
C94         C614   1.487       .  S
O95         C108   1.276       .  A
O95        Cd102   2.070       .  S
O96         C114   1.275       .  A
O96        Cd105   2.071       .  S
O97         C111   1.273       .  A
O97        Cd101   2.056       .  S
O98         C109   1.273       .  A
O98        Cd101   2.056       .  S
Zn99        O110   2.025       .  S
Zn99        O112   2.010       .  S
Zn99        O104   1.933       .  S
O100        C111   1.276       .  A
O100       Cd105   2.069       .  S
Cd101       O103   2.058       .  S
Cd101       O104   1.981       .  S
Cd102       O106   2.077       .  S
Cd102       O115   2.072       .  S
Cd102       O104   1.992       .  S
O103        C113   1.272       .  A
O104       Cd105   1.981       .  S
Cd105       O107   2.060       .  S
O106        C113   1.276       .  A
C108        O112   1.274       .  A
C108        C486   1.488       .  S
C109        C509   1.467       .  S
C111        C573   1.473       .  S
C113        C541   1.484       .  S
C114        O115   1.276       .  A
C114        C646   1.497       .  S
C116       C1245   1.477       .  S
C116        N117   1.359       .  A
C116        N121   1.361       .  A
N117        C118   1.355       .  A
C118        C445   1.479       .  S
C118        N119   1.354       .  A
N119        C120   1.354       .  A
C120        C637   1.475       .  S
C120        N121   1.359       .  A
O122        C138   1.277       .  A
O122       Zn128   2.030       .  S
C123        O139   1.276       .  A
C123        O136   1.273       .  A
C123        C317   1.483       .  S
O124        C137   1.272       .  A
O124       Cd131   2.052       .  S
O125        C143   1.273       .  A
O125       Cd134   2.064       .  S
O126        C140   1.273       .  A
O126       Cd130   2.062       .  S
O127        C138   1.271       .  A
O127       Cd130   2.049       .  S
Zn128       O139   2.030       .  S
Zn128       O141   2.016       .  S
Zn128       O133   1.943       .  S
O129        C140   1.275       .  A
O129       Cd134   2.064       .  S
Cd130       O132   2.068       .  S
Cd130       O133   1.984       .  S
Cd131       O135   2.064       .  S
Cd131       O144   2.051       .  S
Cd131       O133   1.992       .  S
O132        C142   1.273       .  A
O133       Cd134   1.990       .  S
Cd134       O136   2.057       .  S
O135        C142   1.274       .  A
C137        O141   1.274       .  A
C137        C285   1.476       .  S
C138        C413   1.494       .  S
C140        C390   1.484       .  S
C142        C358   1.484       .  S
C143        O144   1.273       .  A
C143        C454   1.482       .  S
C145       C1309   1.487       .  S
C145        N146   1.364       .  A
C145        N150   1.362   1_565  A
N146        C147   1.360       .  A
C147        C349   1.478       .  S
C147        N148   1.353       .  A
N148        C149   1.351   1_565  A
C149        C550   1.474       .  S
C149        N150   1.357       .  A
C151       C1277   1.489       .  S
C151        N152   1.363       .  A
C151        N156   1.362   1_455  A
N152        C153   1.358       .  A
C153        C294   1.469       .  S
C153        N154   1.351       .  A
N154        C155   1.351   1_455  A
C155        C477   1.488       .  S
C155        N156   1.360       .  A
C157        C253   1.482       .  S
C157        N158   1.364   1_655  A
C157        N162   1.362       .  A
N158        C159   1.360       .  A
C159        C422   1.472       .  S
C159        N160   1.352   1_455  A
N160        C161   1.351       .  A
C161        C605   1.465       .  S
C161        N162   1.355       .  A
C163        C230   1.481       .  S
C163        N164   1.360       .  A
C163        N168   1.364       .  A
N164        C165   1.356       .  A
C165        C582   1.471       .  S
C165        N166   1.353       .  A
N166        C167   1.354       .  A
C167        C326   1.478       .  S
C167        N168   1.362       .  A
C169        C198   1.481       .  S
C169        N170   1.364       .  A
C169        N174   1.361   1_565  A
N170        C171   1.360       .  A
C171        C381   1.472       .  S
C171        N172   1.352       .  A
N172        C173   1.352   1_565  A
C173        C518   1.472       .  S
C173        N174   1.357       .  A
C175        H176   1.108       .  S
C175        C181   1.542   1_655  S
C175        C180   1.541       .  S
C175        C179   1.539   1_665  S
C177        H178   1.112       .  S
C177        C183   1.530   1_445  S
C177        C182   1.533       .  S
C177        C184   1.536   1_545  S
C179        C182   1.377       .  D
C179        C742   1.492       .  S
C180        C183   1.371       .  D
C180        C678   1.494   1_565  S
C181        C184   1.380       .  D
C181        C710   1.491   1_455  S
C182        C221   1.483       .  S
C183        C189   1.480       .  S
C184        C262   1.491       .  S
C185        C186   1.400       .  A
C185        C190   1.399       .  A
C185        H195   1.085       .  S
C186        C191   1.479   1_565  S
C186        C187   1.412   1_565  A
C187        C188   1.404       .  A
C187        C192   1.506       .  S
C188        C189   1.402   1_545  A
C188        H193   1.085       .  S
C189        C190   1.415       .  A
C190        C194   1.507       .  S
C191        C196   1.413       .  A
C191        C200   1.400   1_545  A
C192        H208   1.110       .  S
C192        H209   1.109       .  S
C192        H210   1.111       .  S
C194        H205   1.110       .  S
C194        H206   1.110       .  S
C194        H207   1.106       .  S
C196        C197   1.402       .  A
C196        C201   1.508       .  S
C197        C198   1.405   1_545  A
C197        H202   1.085       .  S
C198        C199   1.415       .  A
C199        C200   1.403       .  A
C199        C203   1.503       .  S
C200        H204   1.085       .  S
C201        H211   1.111       .  S
C201        H212   1.108       .  S
C201        H213   1.110       .  S
C203        H214   1.107       .  S
C203        H215   1.111       .  S
C203        H216   1.111       .  S
C217        C218   1.399       .  A
C217        C222   1.400       .  A
C217        H227   1.085       .  S
C218        C223   1.477       .  S
C218        C219   1.410       .  A
C219        C220   1.403       .  A
C219        C224   1.506       .  S
C220        C221   1.403       .  A
C220        H225   1.084       .  S
C221        C222   1.416       .  A
C222        C226   1.507       .  S
C223        C228   1.412       .  A
C223        C232   1.399       .  A
C224        H240   1.110       .  S
C224        H241   1.110       .  S
C224        H242   1.111       .  S
C226        H237   1.110       .  S
C226        H238   1.110       .  S
C226        H239   1.107       .  S
C228        C229   1.402       .  A
C228        C233   1.508       .  S
C229        C230   1.405       .  A
C229        H234   1.085       .  S
C230        C231   1.415       .  A
C231        C232   1.403       .  A
C231        C235   1.504       .  S
C232        H236   1.085       .  S
C233        H243   1.110       .  S
C233        H244   1.110       .  S
C233        H245   1.108       .  S
C235        H246   1.108       .  S
C235        H247   1.110       .  S
C235        H248   1.111       .  S
C249        C250   1.402   1_455  A
C249        C254   1.404       .  A
C249        H259   1.085       .  S
C250        C255   1.484       .  S
C250        C251   1.413       .  A
C251        C252   1.401       .  A
C251        C256   1.506       .  S
C252        C253   1.405       .  A
C252        H257   1.085       .  S
C253        C254   1.419   1_655  A
C254        C258   1.508       .  S
C255        C260   1.413       .  A
C255        C264   1.400   1_655  A
C256        H272   1.105       .  S
C256        H273   1.110       .  S
C256        H274   1.110       .  S
C258        H269   1.111       .  S
C258        H270   1.110       .  S
C258        H271   1.105       .  S
C260        C261   1.405       .  A
C260        C265   1.506       .  S
C261        C262   1.404   1_655  A
C261        H266   1.083       .  S
C262        C263   1.415       .  A
C263        C264   1.402       .  A
C263        C267   1.503       .  S
C264        H268   1.084       .  S
C265        H275   1.111       .  S
C265        H276   1.110       .  S
C265        H277   1.108       .  S
C267        H278   1.111       .  S
C267        H279   1.107       .  S
C267        H280   1.102       .  S
C281        C282   1.402       .  A
C281        C286   1.402       .  A
C281        H291   1.084       .  S
C282        C287   1.477       .  S
C282        C283   1.408       .  A
C283        C284   1.402       .  A
C283        C288   1.506       .  S
C284        C285   1.406       .  A
C284        H289   1.084       .  S
C285        C286   1.415       .  A
C286        C290   1.508       .  S
C287        C292   1.409       .  A
C287        C296   1.402       .  A
C288        H304   1.110       .  S
C288        H305   1.110       .  S
C288        H306   1.111       .  S
C290        H301   1.111       .  S
C290        H302   1.109       .  S
C290        H303   1.111       .  S
C292        C293   1.401       .  A
C292        C297   1.507       .  S
C293        C294   1.404       .  A
C293        H298   1.084       .  S
C294        C295   1.414       .  A
C295        C296   1.402       .  A
C295        C299   1.507       .  S
C296        H300   1.084       .  S
C297        H307   1.111       .  S
C297        H308   1.110       .  S
C297        H309   1.110       .  S
C299        H310   1.111       .  S
C299        H311   1.106       .  S
C299        H312   1.110       .  S
C313        C314   1.401       .  A
C313        C318   1.402       .  A
C313        H323   1.084       .  S
C314        C319   1.481       .  S
C314        C315   1.410       .  A
C315        C316   1.404       .  A
C315        C320   1.506       .  S
C316        C317   1.406       .  A
C316        H321   1.084       .  S
C317        C318   1.419       .  A
C318        C322   1.509       .  S
C319        C324   1.410       .  A
C319        C328   1.401       .  A
C320        H336   1.109       .  S
C320        H337   1.110       .  S
C320        H338   1.111       .  S
C322        H333   1.109       .  S
C322        H334   1.111       .  S
C322        H335   1.110       .  S
C324        C325   1.402       .  A
C324        C329   1.507       .  S
C325        C326   1.405       .  A
C325        H330   1.085       .  S
C326        C327   1.417       .  A
C327        C328   1.403       .  A
C327        C331   1.505       .  S
C328        H332   1.085       .  S
C329        H339   1.111       .  S
C329        H340   1.109       .  S
C329        H341   1.110       .  S
C331        H342   1.111       .  S
C331        H343   1.103       .  S
C331        H344   1.110       .  S
C345        C346   1.403       .  A
C345        C350   1.404       .  A
C345        H355   1.084       .  S
C346        C351   1.481       .  S
C346        C347   1.410       .  A
C347        C348   1.401       .  A
C347        C352   1.507       .  S
C348        C349   1.405       .  A
C348        H353   1.084       .  S
C349        C350   1.414       .  A
C350        C354   1.507       .  S
C351        C356   1.408       .  A
C351        C360   1.402       .  A
C352        H368   1.109       .  S
C352        H369   1.110       .  S
C352        H370   1.111       .  S
C354        H365   1.111       .  S
C354        H366   1.110       .  S
C354        H367   1.110       .  S
C356        C357   1.403       .  A
C356        C361   1.506       .  S
C357        C358   1.408       .  A
C357        H362   1.084       .  S
C358        C359   1.418       .  A
C359        C360   1.403       .  A
C359        C363   1.509       .  S
C360        H364   1.085       .  S
C361        H371   1.111       .  S
C361        H372   1.109       .  S
C361        H373   1.110       .  S
C363        H374   1.111       .  S
C363        H375   1.109       .  S
C363        H376   1.111       .  S
C377        C378   1.401       .  A
C377        C382   1.402       .  A
C377        H387   1.084       .  S
C378        C383   1.476       .  S
C378        C379   1.409       .  A
C379        C380   1.401       .  A
C379        C384   1.506       .  S
C380        C381   1.404       .  A
C380        H385   1.084       .  S
C381        C382   1.412       .  A
C382        C386   1.504       .  S
C383        C388   1.407       .  A
C383        C392   1.399       .  A
C384        H400   1.110       .  S
C384        H401   1.110       .  S
C384        H402   1.111       .  S
C386        H397   1.105       .  S
C386        H398   1.111       .  S
C386        H399   1.110       .  S
C388        C389   1.402       .  A
C388        C393   1.506       .  S
C389        C390   1.408       .  A
C389        H394   1.084       .  S
C390        C391   1.420       .  A
C391        C392   1.402       .  A
C391        C395   1.509       .  S
C392        H396   1.084       .  S
C393        H403   1.111       .  S
C393        H404   1.110       .  S
C393        H405   1.110       .  S
C395        H406   1.111       .  S
C395        H407   1.110       .  S
C395        H408   1.110       .  S
C409        C410   1.395       .  A
C409        C414   1.402       .  A
C409        H419   1.085       .  S
C410        C415   1.477       .  S
C410        C411   1.408       .  A
C411        C412   1.403       .  A
C411        C416   1.507       .  S
C412        C413   1.410       .  A
C412        H417   1.084       .  S
C413        C414   1.427       .  A
C414        C418   1.510       .  S
C415        C420   1.408       .  A
C415        C424   1.402       .  A
C416        H432   1.110       .  S
C416        H433   1.110       .  S
C416        H434   1.111       .  S
C418        H429   1.111       .  S
C418        H430   1.110       .  S
C418        H431   1.110       .  S
C420        C421   1.399       .  A
C420        C425   1.507       .  S
C421        C422   1.404       .  A
C421        H426   1.084       .  S
C422        C423   1.415       .  A
C423        C424   1.405       .  A
C423        C427   1.507       .  S
C424        H428   1.084       .  S
C425        H435   1.111       .  S
C425        H436   1.110       .  S
C425        H437   1.110       .  S
C427        H438   1.110       .  S
C427        H439   1.107       .  S
C427        H440   1.110       .  S
C441        C442   1.399       .  A
C441        C446   1.402       .  A
C441        H451   1.085       .  S
C442        C447   1.473       .  S
C442        C443   1.407       .  A
C443        C444   1.399       .  A
C443        C448   1.507       .  S
C444        C445   1.406       .  A
C444        H449   1.084       .  S
C445        C446   1.419       .  A
C446        C450   1.508       .  S
C447        C452   1.405       .  A
C447        C456   1.400       .  A
C448        H464   1.110       .  S
C448        H465   1.110       .  S
C448        H466   1.111       .  S
C450        H461   1.111       .  S
C450        H462   1.110       .  S
C450        H463   1.110       .  S
C452        C453   1.399       .  A
C452        C457   1.506       .  S
C453        C454   1.409       .  A
C453        H458   1.083       .  S
C454        C455   1.419       .  A
C455        C456   1.402       .  A
C455        C459   1.509       .  S
C456        H460   1.084       .  S
C457        H467   1.111       .  S
C457        H468   1.110       .  S
C457        H469   1.110       .  S
C459        H470   1.111       .  S
C459        H471   1.109       .  S
C459        H472   1.111       .  S
C473        C474   1.397       .  A
C473        C478   1.401       .  A
C473        H483   1.084       .  S
C474        C479   1.477       .  S
C474        C475   1.407       .  A
C475        C476   1.403       .  A
C475        C480   1.506       .  S
C476        C477   1.408       .  A
C476        H481   1.082       .  S
C477        C478   1.424       .  A
C478        C482   1.510       .  S
C479        C484   1.408       .  A
C479        C488   1.398       .  A
C480        H496   1.110       .  S
C480        H497   1.110       .  S
C480        H498   1.111       .  S
C482        H493   1.111       .  S
C482        H494   1.109       .  S
C482        H495   1.110       .  S
C484        C485   1.403       .  A
C484        C489   1.506       .  S
C485        C486   1.408       .  A
C485        H490   1.084       .  S
C486        C487   1.423       .  A
C487        C488   1.402       .  A
C487        C491   1.509       .  S
C488        H492   1.084       .  S
C489        H499   1.111       .  S
C489        H500   1.110       .  S
C489        H501   1.111       .  S
C491        H502   1.111       .  S
C491        H503   1.109       .  S
C491        H504   1.111       .  S
C505        C506   1.400       .  A
C505        C510   1.399       .  A
C505        H515   1.085       .  S
C506        C511   1.474       .  S
C506        C507   1.409       .  A
C507        C508   1.403       .  A
C507        C512   1.506       .  S
C508        C509   1.403       .  A
C508        H513   1.084       .  S
C509        C510   1.415       .  A
C510        C514   1.509       .  S
C511        C516   1.410       .  A
C511        C520   1.399       .  A
C512        H528   1.110       .  S
C512        H529   1.110       .  S
C512        H530   1.111       .  S
C514        H525   1.111       .  S
C514        H526   1.110       .  S
C514        H527   1.107       .  S
C516        C517   1.402       .  A
C516        C521   1.507       .  S
C517        C518   1.403       .  A
C517        H522   1.084       .  S
C518        C519   1.417       .  A
C519        C520   1.400       .  A
C519        C523   1.508       .  S
C520        H524   1.084       .  S
C521        H531   1.111       .  S
C521        H532   1.110       .  S
C521        H533   1.110       .  S
C523        H534   1.110       .  S
C523        H535   1.108       .  S
C523        H536   1.111       .  S
C537        C538   1.399       .  A
C537        C542   1.403       .  A
C537        H547   1.084       .  S
C538        C543   1.478       .  S
C538        C539   1.408       .  A
C539        C540   1.403       .  A
C539        C544   1.506       .  S
C540        C541   1.407       .  A
C540        H545   1.084       .  S
C541        C542   1.420       .  A
C542        C546   1.509       .  S
C543        C548   1.411       .  A
C543        C552   1.399       .  A
C544        H560   1.110       .  S
C544        H561   1.110       .  S
C544        H562   1.111       .  S
C546        H557   1.111       .  S
C546        H558   1.111       .  S
C546        H559   1.109       .  S
C548        C549   1.405       .  A
C548        C553   1.506       .  S
C549        C550   1.404       .  A
C549        H554   1.084       .  S
C550        C551   1.415       .  A
C551        C552   1.401       .  A
C551        C555   1.508       .  S
C552        H556   1.084       .  S
C553        H563   1.111       .  S
C553        H564   1.110       .  S
C553        H565   1.110       .  S
C555        H566   1.111       .  S
C555        H567   1.108       .  S
C555        H568   1.110       .  S
C569        C570   1.400       .  A
C569        C574   1.400       .  A
C569        H579   1.085       .  S
C570        C575   1.474       .  S
C570        C571   1.408       .  A
C571        C572   1.403       .  A
C571        C576   1.506       .  S
C572        C573   1.406       .  A
C572        H577   1.084       .  S
C573        C574   1.416       .  A
C574        C578   1.509       .  S
C575        C580   1.410       .  A
C575        C584   1.399       .  A
C576        H592   1.110       .  S
C576        H593   1.109       .  S
C576        H594   1.111       .  S
C578        H589   1.111       .  S
C578        H590   1.110       .  S
C578        H591   1.106       .  S
C580        C581   1.401       .  A
C580        C585   1.507       .  S
C581        C582   1.403       .  A
C581        H586   1.084       .  S
C582        C583   1.416       .  A
C583        C584   1.401       .  A
C583        C587   1.508       .  S
C584        H588   1.085       .  S
C585        H595   1.111       .  S
C585        H596   1.110       .  S
C585        H597   1.109       .  S
C587        H598   1.110       .  S
C587        H599   1.108       .  S
C587        H600   1.111       .  S
C601        C602   1.401       .  A
C601        C606   1.397       .  A
C601        H611   1.085       .  S
C602        C607   1.480       .  S
C602        C603   1.412       .  A
C603        C604   1.405       .  A
C603        C608   1.506       .  S
C604        C605   1.402       .  A
C604        H609   1.084       .  S
C605        C606   1.412       .  A
C606        C610   1.509       .  S
C607        C612   1.412       .  A
C607        C616   1.399       .  A
C608        H624   1.109       .  S
C608        H625   1.110       .  S
C608        H626   1.111       .  S
C610        H621   1.111       .  S
C610        H622   1.110       .  S
C610        H623   1.108       .  S
C612        C613   1.401       .  A
C612        C617   1.508       .  S
C613        C614   1.405       .  A
C613        H618   1.084       .  S
C614        C615   1.421       .  A
C615        C616   1.404       .  A
C615        C619   1.508       .  S
C616        H620   1.084       .  S
C617        H627   1.111       .  S
C617        H628   1.109       .  S
C617        H629   1.110       .  S
C619        H630   1.109       .  S
C619        H631   1.111       .  S
C619        H632   1.111       .  S
C633        C634   1.400       .  A
C633        C638   1.402       .  A
C633        H643   1.084       .  S
C634        C639   1.481       .  S
C634        C635   1.413       .  A
C635        C636   1.403       .  A
C635        C640   1.507       .  S
C636        C637   1.402       .  A
C636        H641   1.085       .  S
C637        C638   1.415       .  A
C638        C642   1.508       .  S
C639        C644   1.407       .  A
C639        C648   1.399       .  A
C640        H656   1.109       .  S
C640        H657   1.110       .  S
C640        H658   1.111       .  S
C642        H653   1.111       .  S
C642        H654   1.107       .  S
C642        H655   1.110       .  S
C644        C645   1.405       .  A
C644        C649   1.506       .  S
C645        C646   1.413       .  A
C645        H650   1.083       .  S
C646        C647   1.424       .  A
C647        C648   1.402       .  A
C647        C651   1.509       .  S
C648        H652   1.084       .  S
C649        H659   1.111       .  S
C649        H660   1.110       .  S
C649        H661   1.110       .  S
C651        H662   1.110       .  S
C651        H663   1.110       .  S
C651        H664   1.111       .  S
C665        C666   1.401   1_565  A
C665        C670   1.404       .  A
C665        H675   1.085       .  S
C666        C671   1.482       .  S
C666        C667   1.410       .  A
C667        C668   1.405       .  A
C667        C672   1.506       .  S
C668        C669   1.405       .  A
C668        H673   1.084       .  S
C669        C670   1.417   1_545  A
C670        C674   1.508       .  S
C671        C676   1.409       .  A
C671        C680   1.399   1_545  A
C672        H688   1.110       .  S
C672        H689   1.110       .  S
C672        H690   1.111       .  S
C674        H685   1.111       .  S
C674        H686   1.110       .  S
C674        H687   1.107       .  S
C676        C677   1.404       .  A
C676        C681   1.506       .  S
C677        C678   1.407       .  A
C677        H682   1.083       .  S
C678        C679   1.418   1_545  A
C679        C680   1.404       .  A
C679        C683   1.503       .  S
C680        H684   1.085       .  S
C681        H691   1.111       .  S
C681        H692   1.110       .  S
C681        H693   1.109       .  S
C683        H694   1.110       .  S
C683        H695   1.097       .  S
C683        H696   1.110       .  S
C697        C698   1.398   1_455  A
C697        C702   1.401       .  A
C697        H707   1.084       .  S
C698        C703   1.476       .  S
C698        C699   1.410       .  A
C699        C700   1.404       .  A
C699        C704   1.506       .  S
C700        C701   1.406       .  A
C700        H705   1.084       .  S
C701        C702   1.419   1_655  A
C702        C706   1.509       .  S
C703        C708   1.410       .  A
C703        C712   1.401   1_655  A
C704        H720   1.110       .  S
C704        H721   1.110       .  S
C704        H722   1.111       .  S
C706        H717   1.111       .  S
C706        H718   1.109       .  S
C706        H719   1.110       .  S
C708        C709   1.398       .  A
C708        C713   1.507       .  S
C709        C710   1.405       .  A
C709        H714   1.084       .  S
C710        C711   1.418   1_655  A
C711        C712   1.404       .  A
C711        C715   1.508       .  S
C712        H716   1.084       .  S
C713        H723   1.108       .  S
C713        H724   1.106       .  S
C713        H725   1.110       .  S
C715        H726   1.111       .  S
C715        H727   1.105       .  S
C715        H728   1.106       .  S
C729        C730   1.401       .  A
C729        C734   1.405       .  A
C729        H739   1.084       .  S
C730        C735   1.482       .  S
C730        C731   1.410       .  A
C731        C732   1.404       .  A
C731        C736   1.507       .  S
C732        C733   1.405       .  A
C732        H737   1.084       .  S
C733        C734   1.416       .  A
C734        C738   1.507       .  S
C735        C740   1.411       .  A
C735        C744   1.397       .  A
C736        H752   1.110       .  S
C736        H753   1.110       .  S
C736        H754   1.111       .  S
C738        H749   1.111       .  S
C738        H750   1.110       .  S
C738        H751   1.106       .  S
C740        C741   1.406       .  A
C740        C745   1.505       .  S
C741        C742   1.404       .  A
C741        H746   1.084       .  S
C742        C743   1.420       .  A
C743        C744   1.400       .  A
C743        C747   1.504       .  S
C744        H748   1.085       .  S
C745        H755   1.111       .  S
C745        H756   1.110       .  S
C745        H757   1.110       .  S
C747        H758   1.110       .  S
C747        H759   1.101       .  S
C747        H760   1.110       .  S
C761        C762   1.398       .  A
C761        C766   1.403       .  A
C761        H771   1.084       .  S
C762        C767   1.480       .  S
C762        C763   1.407       .  A
C763        C764   1.405       .  A
C763        C768   1.506       .  S
C764        C765   1.412       .  A
C764        H769   1.083       .  S
C765        C766   1.425       .  A
C766        C770   1.509       .  S
C767        C772   1.412       .  A
C767        C776   1.399       .  A
C768        H784   1.110       .  S
C768        H785   1.110       .  S
C768        H786   1.111       .  S
C770        H781   1.110       .  S
C770        H782   1.111       .  S
C770        H783   1.110       .  S
C772        C773   1.405       .  A
C772        C777   1.506       .  S
C773        C774   1.403       .  A
C773        H778   1.084       .  S
C774        C775   1.417       .  A
C775        C776   1.400       .  A
C775        C779   1.508       .  S
C776        H780   1.084       .  S
C777        H787   1.111       .  S
C777        H788   1.110       .  S
C777        H789   1.110       .  S
C779        H790   1.110       .  S
C779        H791   1.108       .  S
C779        H792   1.110       .  S
C793        C794   1.400       .  A
C793        C798   1.406       .  A
C793        H803   1.084       .  S
C794        C799   1.479       .  S
C794        C795   1.411       .  A
C795        C796   1.401       .  A
C795        C800   1.508       .  S
C796        C797   1.403       .  A
C796        H801   1.084       .  S
C797        C798   1.418       .  A
C798        C802   1.508       .  S
C799        C804   1.410       .  A
C799        C808   1.400       .  A
C800        H816   1.110       .  S
C800        H817   1.109       .  S
C800        H818   1.111       .  S
C802        H813   1.111       .  S
C802        H814   1.109       .  S
C802        H815   1.110       .  S
C804        C805   1.405       .  A
C804        C809   1.507       .  S
C805        C806   1.404       .  A
C805        H810   1.084       .  S
C806        C807   1.415       .  A
C807        C808   1.401       .  A
C807        C811   1.508       .  S
C808        H812   1.084       .  S
C809        H819   1.111       .  S
C809        H820   1.110       .  S
C809        H821   1.109       .  S
C811        H822   1.110       .  S
C811        H823   1.107       .  S
C811        H824   1.110       .  S
C825        C826   1.402       .  A
C825        C830   1.402       .  A
C825        H835   1.084       .  S
C826        C831   1.479       .  S
C826        C827   1.411       .  A
C827        C828   1.403       .  A
C827        C832   1.506       .  S
C828        C829   1.402       .  A
C828        H833   1.084       .  S
C829        C830   1.410       .  A
C830        C834   1.506       .  S
C831        C836   1.409       .  A
C831        C840   1.402       .  A
C832        H848   1.110       .  S
C832        H849   1.110       .  S
C832        H850   1.111       .  S
C834        H845   1.111       .  S
C834        H846   1.109       .  S
C834        H847   1.111       .  S
C836        C837   1.403       .  A
C836        C841   1.506       .  S
C837        C838   1.405       .  A
C837        H842   1.084       .  S
C838        C839   1.415       .  A
C839        C840   1.404       .  A
C839        C843   1.507       .  S
C840        H844   1.084       .  S
C841        H851   1.111       .  S
C841        H852   1.110       .  S
C841        H853   1.111       .  S
C843        H854   1.110       .  S
C843        H855   1.109       .  S
C843        H856   1.111       .  S
C857        C858   1.400       .  A
C857        C862   1.404       .  A
C857        H867   1.084       .  S
C858        C863   1.475       .  S
C858        C859   1.409       .  A
C859        C860   1.399       .  A
C859        C864   1.508       .  S
C860        C861   1.405       .  A
C860        H865   1.084       .  S
C861        C862   1.419       .  A
C862        C866   1.508       .  S
C863        C868   1.409       .  A
C863        C872   1.399       .  A
C864        H880   1.110       .  S
C864        H881   1.110       .  S
C864        H882   1.111       .  S
C866        H877   1.111       .  S
C866        H878   1.110       .  S
C866        H879   1.106       .  S
C868        C869   1.403       .  A
C868        C873   1.506       .  S
C869        C870   1.403       .  A
C869        H874   1.084       .  S
C870        C871   1.416       .  A
C871        C872   1.400       .  A
C871        C875   1.509       .  S
C872        H876   1.085       .  S
C873        H883   1.111       .  S
C873        H884   1.110       .  S
C873        H885   1.109       .  S
C875        H886   1.110       .  S
C875        H887   1.106       .  S
C875        H888   1.111       .  S
C889        C890   1.401       .  A
C889        C894   1.405       .  A
C889        H899   1.085       .  S
C890        C895   1.482       .  S
C890        C891   1.409       .  A
C891        C892   1.403       .  A
C891        C896   1.507       .  S
C892        C893   1.405       .  A
C892        H897   1.085       .  S
C893        C894   1.419       .  A
C894        C898   1.508       .  S
C895        C900   1.412       .  A
C895        C904   1.401       .  A
C896        H912   1.110       .  S
C896        H913   1.109       .  S
C896        H914   1.111       .  S
C898        H909   1.111       .  S
C898        H910   1.110       .  S
C898        H911   1.105       .  S
C900        C901   1.402       .  A
C900        C905   1.508       .  S
C901        C902   1.403       .  A
C901        H906   1.084       .  S
C902        C903   1.418       .  A
C903        C904   1.406       .  A
C903        C907   1.507       .  S
C904        H908   1.084       .  S
C905        H915   1.111       .  S
C905        H916   1.110       .  S
C905        H917   1.109       .  S
C907        H918   1.110       .  S
C907        H919   1.107       .  S
C907        H920   1.111       .  S
C921        C922   1.401       .  A
C921        C926   1.403       .  A
C921        H931   1.084       .  S
C922        C927   1.477       .  S
C922        C923   1.409       .  A
C923        C924   1.401       .  A
C923        C928   1.507       .  S
C924        C925   1.404       .  A
C924        H929   1.084       .  S
C925        C926   1.415       .  A
C926        C930   1.507       .  S
C927        C932   1.409       .  A
C927        C936   1.398       .  A
C928        H944   1.110       .  S
C928        H945   1.110       .  S
C928        H946   1.111       .  S
C930        H941   1.111       .  S
C930        H942   1.110       .  S
C930        H943   1.105       .  S
C932        C933   1.402       .  A
C932        C937   1.507       .  S
C933        C934   1.407       .  A
C933        H938   1.084       .  S
C934        C935   1.420       .  A
C935        C936   1.404       .  A
C935        C939   1.508       .  S
C936        H940   1.084       .  S
C937        H947   1.111       .  S
C937        H948   1.110       .  S
C937        H949   1.110       .  S
C939        H950   1.111       .  S
C939        H951   1.111       .  S
C939        H952   1.109       .  S
C953        C954   1.400       .  A
C953        C958   1.402       .  A
C953        H963   1.084       .  S
C954        C959   1.481       .  S
C954        C955   1.412       .  A
C955        C956   1.403       .  A
C955        C960   1.507       .  S
C956        C957   1.404       .  A
C956        H961   1.084       .  S
C957        C958   1.417       .  A
C958        C962   1.507       .  S
C959        C964   1.409       .  A
C959        C968   1.399       .  A
C960        H976   1.110       .  S
C960        H977   1.110       .  S
C960        H978   1.111       .  S
C962        H973   1.110       .  S
C962        H974   1.111       .  S
C962        H975   1.108       .  S
C964        C965   1.401       .  A
C964        C969   1.508       .  S
C965        C966   1.408       .  A
C965        H970   1.083       .  S
C966        C967   1.424       .  A
C967        C968   1.406       .  A
C967        C971   1.508       .  S
C968        H972   1.083       .  S
C969        H979   1.111       .  S
C969        H980   1.110       .  S
C969        H981   1.110       .  S
C971        H982   1.110       .  S
C971        H983   1.110       .  S
C971        H984   1.111       .  S
C985        C986   1.401       .  A
C985        C990   1.404       .  A
C985        H995   1.085       .  S
C986        C991   1.487       .  S
C986        C987   1.410       .  A
C987        C988   1.408       .  A
C987        C992   1.506       .  S
C988        C989   1.409       .  A
C988        H993   1.084       .  S
C989        C990   1.419       .  A
C990        C994   1.508       .  S
C991        C996   1.412       .  A
C991       C1000   1.404       .  A
C992       H1008   1.110       .  S
C992       H1009   1.110       .  S
C992       H1010   1.111       .  S
C994       H1005   1.109       .  S
C994       H1006   1.111       .  S
C994       H1007   1.110   1_554  S
C996        C997   1.402       .  A
C996       C1001   1.508       .  S
C997        C998   1.403       .  A
C997       H1002   1.084       .  S
C998        C999   1.416       .  A
C999       C1000   1.410       .  A
C999       C1003   1.505       .  S
C1000      H1004   1.084       .  S
C1001      H1011   1.111       .  S
C1001      H1012   1.109       .  S
C1001      H1013   1.110       .  S
C1003      H1014   1.110       .  S
C1003      H1015   1.110       .  S
C1003      H1016   1.111       .  S
C1017      C1018   1.398       .  A
C1017      C1022   1.404       .  A
C1017      H1027   1.084       .  S
C1018      C1023   1.479       .  S
C1018      C1019   1.411       .  A
C1019      C1020   1.400       .  A
C1019      C1024   1.509       .  S
C1020      C1021   1.407       .  A
C1020      H1025   1.083       .  S
C1021      C1022   1.423       .  A
C1022      C1026   1.509       .  S
C1023      C1028   1.412       .  A
C1023      C1032   1.399       .  A
C1024      H1040   1.109       .  S
C1024      H1041   1.111       .  S
C1024      H1042   1.111       .  S
C1026      H1037   1.111       .  S
C1026      H1038   1.110       .  S
C1026      H1039   1.111       .  S
C1028      C1029   1.404       .  A
C1028      C1033   1.506       .  S
C1029      C1030   1.404       .  A
C1029      H1034   1.084       .  S
C1030      C1031   1.416       .  A
C1031      C1032   1.398       .  A
C1031      C1035   1.508       .  S
C1032      H1036   1.085       .  S
C1033      H1043   1.111       .  S
C1033      H1044   1.110       .  S
C1033      H1045   1.110       .  S
C1035      H1046   1.110       .  S
C1035      H1047   1.108       .  S
C1035      H1048   1.111       .  S
C1049      C1050   1.399       .  A
C1049      C1054   1.405       .  A
C1049      H1059   1.085       .  S
C1050      C1055   1.480       .  S
C1050      C1051   1.407       .  A
C1051      C1052   1.404       .  A
C1051      C1056   1.506       .  S
C1052      C1053   1.410       .  A
C1052      H1057   1.084       .  S
C1053      C1054   1.423       .  A
C1054      C1058   1.508       .  S
C1055      C1060   1.408       .  A
C1055      C1064   1.402       .  A
C1056      H1072   1.110       .  S
C1056      H1073   1.110       .  S
C1056      H1074   1.111       .  S
C1058      H1069   1.110       .  S
C1058      H1070   1.111       .  S
C1058      H1071   1.109       .  S
C1060      C1061   1.401       .  A
C1060      C1065   1.507       .  S
C1061      C1062   1.406       .  A
C1061      H1066   1.084       .  S
C1062      C1063   1.416       .  A
C1063      C1064   1.407       .  A
C1063      C1067   1.507       .  S
C1064      H1068   1.084       .  S
C1065      H1075   1.111       .  S
C1065      H1076   1.110       .  S
C1065      H1077   1.110       .  S
C1067      H1078   1.111       .  S
C1067      H1079   1.110       .  S
C1067      H1080   1.111       .  S
C1081      C1082   1.400       .  A
C1081      C1086   1.406       .  A
C1081      H1091   1.085       .  S
C1082      C1087   1.481       .  S
C1082      C1083   1.411       .  A
C1083      C1084   1.401       .  A
C1083      C1088   1.508       .  S
C1084      C1085   1.404       .  A
C1084      H1089   1.084       .  S
C1085      C1086   1.421       .  A
C1086      C1090   1.508       .  S
C1087      C1092   1.411       .  A
C1087      C1096   1.400       .  A
C1088      H1104   1.110       .  S
C1088      H1105   1.110       .  S
C1088      H1106   1.111       .  S
C1090      H1101   1.110       .  S
C1090      H1102   1.111       .  S
C1090      H1103   1.106       .  S
C1092      C1093   1.406       .  A
C1092      C1097   1.505       .  S
C1093      C1094   1.405       .  A
C1093      H1098   1.084       .  S
C1094      C1095   1.416       .  A
C1095      C1096   1.401       .  A
C1095      C1099   1.508       .  S
C1096      H1100   1.084       .  S
C1097      H1107   1.111       .  S
C1097      H1108   1.110       .  S
C1097      H1109   1.110       .  S
C1099      H1110   1.111       .  S
C1099      H1111   1.110       .  S
C1099      H1112   1.108       .  S
C1113      C1114   1.399       .  A
C1113      C1118   1.405       .  A
C1113      H1123   1.084       .  S
C1114      C1119   1.479       .  S
C1114      C1115   1.410       .  A
C1115      C1116   1.401       .  A
C1115      C1120   1.507       .  S
C1116      C1117   1.405       .  A
C1116      H1121   1.084       .  S
C1117      C1118   1.422       .  A
C1118      C1122   1.509       .  S
C1119      C1124   1.411       .  A
C1119      C1128   1.400       .  A
C1120      H1136   1.110       .  S
C1120      H1137   1.110       .  S
C1120      H1138   1.111       .  S
C1122      H1133   1.109       .  S
C1122      H1134   1.111       .  S
C1122      H1135   1.111       .  S
C1124      C1125   1.404       .  A
C1124      C1129   1.506       .  S
C1125      C1126   1.403       .  A
C1125      H1130   1.084       .  S
C1126      C1127   1.416       .  A
C1127      C1128   1.401       .  A
C1127      C1131   1.508       .  S
C1128      H1132   1.085       .  S
C1129      H1139   1.111       .  S
C1129      H1140   1.110       .  S
C1129      H1141   1.111       .  S
C1131      H1142   1.111       .  S
C1131      H1143   1.108       .  S
C1131      H1144   1.110       .  S
C1145      C1146   1.402       .  A
C1145      C1150   1.405       .  A
C1145      H1155   1.083       .  S
C1146      C1151   1.480       .  S
C1146      C1147   1.411       .  A
C1147      C1148   1.400       .  A
C1147      C1152   1.507       .  S
C1148      C1149   1.407       .  A
C1148      H1153   1.084       .  S
C1149      C1150   1.414       .  A
C1150      C1154   1.504       .  S
C1151      C1156   1.409       .  A
C1151      C1160   1.399       .  A
C1152      H1168   1.110       .  S
C1152      H1169   1.108       .  S
C1152      H1170   1.109       .  S
C1154      H1165   1.104       .  S
C1154      H1166   1.111       .  S
C1154      H1167   1.107       .  S
C1156      C1157   1.403       .  A
C1156      C1161   1.506       .  S
C1157      C1158   1.407       .  A
C1157      H1162   1.084       .  S
C1158      C1159   1.420       .  A
C1159      C1160   1.405       .  A
C1159      C1163   1.507       .  S
C1160      H1164   1.084       .  S
C1161      H1171   1.111       .  S
C1161      H1172   1.110       .  S
C1161      H1173   1.108       .  S
C1163      H1174   1.110       .  S
C1163      H1175   1.109       .  S
C1163      H1176   1.111       .  S
C1177      C1178   1.400   1_655  A
C1177      C1182   1.402       .  A
C1177      H1187   1.084       .  S
C1178      C1183   1.482       .  S
C1178      C1179   1.412       .  A
C1179      C1180   1.403       .  A
C1179      C1184   1.506       .  S
C1180      C1181   1.405       .  A
C1180      H1185   1.084       .  S
C1181      C1182   1.417   1_455  A
C1182      C1186   1.503       .  S
C1183      C1188   1.410   1_455  A
C1183      C1192   1.401       .  A
C1184      H1200   1.110       .  S
C1184      H1201   1.108       .  S
C1184      H1202   1.110       .  S
C1186      H1197   1.111       .  S
C1186      H1198   1.110       .  S
C1186      H1199   1.098       .  S
C1188      C1189   1.403       .  A
C1188      C1193   1.507       .  S
C1189      C1190   1.404   1_655  A
C1189      H1194   1.084       .  S
C1190      C1191   1.418       .  A
C1191      C1192   1.406       .  A
C1191      C1195   1.508       .  S
C1192      H1196   1.084       .  S
C1193      H1203   1.110       .  S
C1193      H1204   1.110       .  S
C1193      H1205   1.110       .  S
C1195      H1206   1.111       .  S
C1195      H1207   1.107       .  S
C1195      H1208   1.110       .  S
C1209      C1210   1.398       .  A
C1209      C1214   1.398       .  A
C1209      H1219   1.085       .  S
C1210      C1215   1.477   1_565  S
C1210      C1211   1.413   1_565  A
C1211      C1212   1.403       .  A
C1211      C1216   1.506       .  S
C1212      C1213   1.403   1_545  A
C1212      H1217   1.085       .  S
C1213      C1214   1.419       .  A
C1214      C1218   1.506       .  S
C1215      C1220   1.407   1_545  A
C1215      C1224   1.401       .  A
C1216      H1232   1.108       .  S
C1216      H1233   1.110       .  S
C1216      H1234   1.110       .  S
C1218      H1229   1.110       .  S
C1218      H1230   1.110       .  S
C1218      H1231   1.104       .  S
C1220      C1221   1.400       .  A
C1220      C1225   1.507       .  S
C1221      C1222   1.406   1_565  A
C1221      H1226   1.084       .  S
C1222      C1223   1.419       .  A
C1223      C1224   1.407       .  A
C1223      C1227   1.507       .  S
C1224      H1228   1.084       .  S
C1225      H1235   1.111       .  S
C1225      H1236   1.110       .  S
C1225      H1237   1.110       .  S
C1227      H1238   1.111       .  S
C1227      H1239   1.110       .  S
C1227      H1240   1.109       .  S
C1241      C1242   1.401       .  A
C1241      C1246   1.404       .  A
C1241      H1251   1.084       .  S
C1242      C1247   1.480       .  S
C1242      C1243   1.411       .  A
C1243      C1244   1.401       .  A
C1243      C1248   1.506       .  S
C1244      C1245   1.404       .  A
C1244      H1249   1.084       .  S
C1245      C1246   1.415       .  A
C1246      C1250   1.507       .  S
C1247      C1252   1.409       .  A
C1247      C1256   1.402       .  A
C1248      H1264   1.109       .  S
C1248      H1265   1.108       .  S
C1248      H1266   1.111       .  S
C1250      H1261   1.111       .  S
C1250      H1262   1.111       .  S
C1250      H1263   1.109       .  S
C1252      C1253   1.399       .  A
C1252      C1257   1.507       .  S
C1253      C1254   1.405       .  A
C1253      H1258   1.084       .  S
C1254      C1255   1.414       .  A
C1255      C1256   1.403       .  A
C1255      C1259   1.505       .  S
C1256      H1260   1.084       .  S
C1257      H1267   1.111       .  S
C1257      H1268   1.110       .  S
C1257      H1269   1.109       .  S
C1259      H1270   1.110       .  S
C1259      H1271   1.103       .  S
C1259      H1272   1.111       .  S
C1273      C1274   1.400       .  A
C1273      C1278   1.405       .  A
C1273      H1283   1.084       .  S
C1274      C1279   1.483       .  S
C1274      C1275   1.411   1_655  A
C1275      C1276   1.403       .  A
C1275      C1280   1.507       .  S
C1276      C1277   1.407       .  A
C1276      H1281   1.084       .  S
C1277      C1278   1.421   1_455  A
C1278      C1282   1.507       .  S
C1279      C1284   1.411       .  A
C1279      C1288   1.400   1_655  A
C1280      H1296   1.109       .  S
C1280      H1297   1.110       .  S
C1280      H1298   1.111       .  S
C1282      H1293   1.109       .  S
C1282      H1294   1.111       .  S
C1282      H1295   1.110       .  S
C1284      C1285   1.404       .  A
C1284      C1289   1.506       .  S
C1285      C1286   1.405       .  A
C1285      H1290   1.084       .  S
C1286      C1287   1.415   1_655  A
C1287      C1288   1.403       .  A
C1287      C1291   1.504       .  S
C1288      H1292   1.084       .  S
C1289      H1299   1.111       .  S
C1289      H1300   1.109       .  S
C1289      H1301   1.110       .  S
C1291      H1302   1.107       .  S
C1291      H1303   1.109       .  S
C1291      H1304   1.111       .  S
C1305      C1306   1.399   1_545  A
C1305      C1310   1.405       .  A
C1305      H1315   1.084       .  S
C1306      C1311   1.481       .  S
C1306      C1307   1.410       .  A
C1307      C1308   1.405       .  A
C1307      C1312   1.507       .  S
C1308      C1309   1.407       .  A
C1308      H1313   1.084       .  S
C1309      C1310   1.420   1_565  A
C1310      C1314   1.508       .  S
C1311      C1316   1.408   1_565  A
C1311      C1320   1.401       .  A
C1312      H1328   1.110       .  S
C1312      H1329   1.111       .  S
C1312      H1330   1.111       .  S
C1314      H1325   1.109       .  S
C1314      H1326   1.111       .  S
C1314      H1327   1.110       .  S
C1316      C1317   1.400       .  A
C1316      C1321   1.507       .  S
C1317      C1318   1.407   1_545  A
C1317      H1322   1.084       .  S
C1318      C1319   1.418       .  A
C1319      C1320   1.407       .  A
C1319      C1323   1.507       .  S
C1320      H1324   1.084       .  S
C1321      H1331   1.111       .  S
C1321      H1332   1.110       .  S
C1321      H1333   1.110       .  S
C1323      H1334   1.106   1_455  S
C1323      H1335   1.106       .  S
C1323      H1336   1.111       .  S
