geometry optimzed in LAMMPS
_audit_creation_date              2020-11-30 
_audit_creation_method            'lammps2cif' 
_symmetry_space_group_name_H-M    'P1' 
_symmetry_Int_Tables_number       1 
_symmetry_cell_setting            triclinic 
loop_ 
_symmetry_equiv_pos_as_xyz 
  x,y,z 
_cell_length_a                    32.46433254 
_cell_length_b                    32.46140396337363 
_cell_length_c                    64.91986482883915 
_cell_angle_alpha                 89.97996671823651 
_cell_angle_beta                  89.98220702840243 
_cell_angle_gamma                 89.5916895123093 
loop_ 
_atom_site_label 
_atom_site_type_symbol 
_atom_site_fract_x 
_atom_site_fract_y 
_atom_site_fract_z 
_atom_site_charge 
O1          O  0.03450282  0.06123093  0.12584249    -0.71200
O2          O  0.03525308  0.93756448  0.12489846    -0.72200
O3          O  0.03410351  0.00036880  0.09437941    -0.60800
O4          O  0.03559831  0.99854003  0.15621873    -0.69200
O5          O  0.96711597  0.99860516  0.15659917    -0.68800
O6          O  0.96563531  0.00045978  0.09477909    -0.60000
O7          O  0.96678151  0.93762090  0.12529069    -0.72600
O8          O  0.96602805  0.06134156  0.12624815    -0.71300
Cu9        Cu  0.03728040  0.99940911  0.12530025     1.04600
Cu10       Cu  0.96397088  0.99949302  0.12572560     1.04300
C11         C  0.00016774  0.08060264  0.12631316     0.95000
C12         C  0.00114124  0.91826138  0.12505275     0.94100
C13         C  0.99964591  0.00071459  0.08491174     0.86300
C14         C  0.00156426  0.99845413  0.16606153     0.92500
O15         O  0.03452851  0.43712753  0.12570116    -0.71200
O16         O  0.03507504  0.56079558  0.12537235    -0.72200
O17         O  0.03452339  0.49921796  0.15639791    -0.60800
O18         O  0.03503710  0.49864392  0.09451621    -0.69200
O19         O  0.96656863  0.49942032  0.09440600    -0.68800
O20         O  0.96604280  0.49999233  0.15627131    -0.60000
O21         O  0.96659938  0.56160039  0.12524736    -0.72600
O22         O  0.96604979  0.43787894  0.12557552    -0.71300
Cu23       Cu  0.03720652  0.49892532  0.12548204     1.04600
Cu24       Cu  0.96389735  0.49975825  0.12534989     1.04300
C25         C  0.00021542  0.41818375  0.12581627     0.95000
C26         C  0.00092940  0.58052703  0.12536712     0.94100
C27         C  0.00020466  0.49962206  0.16599511     0.86300
C28         C  0.00086846  0.49892717  0.08478649     0.92500
O29         O  0.53394287  0.99974425  0.15633244    -0.71200
O30         O  0.53504484  0.00007628  0.09452050    -0.72200
O31         O  0.53434554  0.06166675  0.12552120    -0.60800
O32         O  0.53475541  0.93802655  0.12537134    -0.69200
O33         O  0.46628011  0.93824619  0.12509751    -0.68800
O34         O  0.46586514  0.06199696  0.12523007    -0.60000
O35         O  0.46656241  0.00033117  0.09426321    -0.72600
O36         O  0.46545580  0.00003610  0.15603978    -0.71300
Cu37       Cu  0.53693859  0.99985389  0.12544561     1.04600
Cu38       Cu  0.46361778  0.00014602  0.12514499     1.04300
C39         C  0.49952444  0.99994738  0.16583552     0.95000
C40         C  0.50094991  0.00033329  0.08473627     0.94100
C41         C  0.50006653  0.08115019  0.12541213     0.86300
C42         C  0.50060041  0.91880508  0.12522346     0.92500
O43         O  0.46529667  0.43836347  0.12559959    -0.71200
O44         O  0.46568514  0.56211152  0.12511250    -0.72200
O45         O  0.46504469  0.49971218  0.09442310    -0.60800
O46         O  0.46585055  0.50069169  0.15625149    -0.69200
O47         O  0.53433330  0.49998557  0.15603956    -0.68800
O48         O  0.53352458  0.49902200  0.09421839    -0.60000
O49         O  0.53416167  0.56134759  0.12489807    -0.72600
O50         O  0.53377762  0.43773376  0.12537608    -0.71300
Cu51       Cu  0.46304028  0.50025176  0.12535294     1.04600
Cu52       Cu  0.53635772  0.49950422  0.12512156     1.04300
C53         C  0.49950527  0.41873073  0.12556429     0.95000
C54         C  0.50000830  0.58105757  0.12496175     0.94100
C55         C  0.49917542  0.49915654  0.08466080     0.86300
C56         C  0.50020508  0.50045954  0.16580211     0.92500
O57         O  0.03415366  0.06184433  0.87506817    -0.71200
O58         O  0.03433442  0.93817473  0.87521645    -0.72200
O59         O  0.03359712  0.99992630  0.84425389    -0.60800
O60         O  0.03476753  0.00017983  0.90615893    -0.69200
O61         O  0.96629733  0.00055717  0.90644063    -0.68800
O62         O  0.96512005  0.00030115  0.84461582    -0.60000
O63         O  0.96586123  0.93851305  0.87554378    -0.72600
O64         O  0.96567524  0.06223742  0.87539514    -0.71300
Cu65       Cu  0.03663758  0.00000684  0.87517966     1.04600
Cu66       Cu  0.96332895  0.00040635  0.87552858     1.04300
C67         C  0.99988851  0.08135902  0.87511344     0.95000
C68         C  0.00014210  0.91901241  0.87529477     0.94100
C69         C  0.99915201  0.00014268  0.83477356     0.86300
C70         C  0.00067673  0.00046636  0.91597052     0.92500
O71         O  0.96668824  0.56222415  0.87485102    -0.71200
O72         O  0.96651768  0.43854243  0.87502853    -0.72200
O73         O  0.96597374  0.50046263  0.90595008    -0.60800
O74         O  0.96725763  0.50020626  0.84408484    -0.69200
O75         O  0.03573759  0.49960777  0.84440128    -0.68800
O76         O  0.03444090  0.49985874  0.90626398    -0.60000
O77         O  0.03499579  0.43791882  0.87535322    -0.72600
O78         O  0.03516112  0.56162690  0.87517923    -0.71300
Cu79       Cu  0.96419281  0.50038650  0.87498308     1.04600
Cu80       Cu  0.03750122  0.49974126  0.87532983     1.04300
C81         C  0.00095728  0.58125562  0.87487272     0.95000
C82         C  0.00071834  0.41891219  0.87512345     0.94100
C83         C  0.00002532  0.50011675  0.91578051     0.86300
C84         C  0.00168221  0.49985040  0.83458480     0.92500
O85         O  0.53526028  0.93842354  0.87532497    -0.71200
O86         O  0.53543059  0.06217748  0.87584536    -0.72200
O87         O  0.53485941  0.99982764  0.90644730    -0.60800
O88         O  0.53590976  0.00084032  0.84458695    -0.69200
O89         O  0.46744081  0.00141352  0.84432484    -0.68800
O90         O  0.46637841  0.00038749  0.90618504    -0.60000
O91         O  0.46695223  0.06267434  0.87557797    -0.72600
O92         O  0.46678547  0.93904810  0.87505243    -0.71300
Cu93       Cu  0.53779160  0.00028855  0.87554674     1.04600
Cu94       Cu  0.46448158  0.00089482  0.87526009     1.04300
C95         C  0.50097730  0.91940627  0.87518905     0.95000
C96         C  0.50118403  0.08174401  0.87588937     0.94100
C97         C  0.50046579  0.00003753  0.91597433     0.86300
C98         C  0.50182985  0.00129231  0.83478346     0.92500
O99         O  0.46654513  0.43888780  0.87544433    -0.71200
O100        O  0.46642308  0.56251502  0.87535725    -0.72200
O101        O  0.46624617  0.50061565  0.84439797    -0.60800
O102        O  0.46687669  0.50067005  0.90628152    -0.69200
O103        O  0.53535699  0.50025489  0.90610533    -0.68800
O104        O  0.53471752  0.50015785  0.84425231    -0.60000
O105        O  0.53489881  0.56213938  0.87517429    -0.72600
O106        O  0.53502582  0.43837815  0.87528399    -0.71300
Cu107      Cu  0.46411021  0.50069946  0.87536347     1.04600
Cu108      Cu  0.53742130  0.50023125  0.87518257     1.04300
C109        C  0.50077239  0.41931473  0.87547982     0.95000
C110        C  0.50062171  0.58165798  0.87531644     0.94100
C111        C  0.50041102  0.50033278  0.83465324     0.86300
C112        C  0.50121400  0.50035968  0.91585446     0.92500
O113        O  0.00020518  0.03376159  0.40650019    -0.71200
O114        O  0.00019450  0.03634441  0.34471274    -0.72200
O115        O  0.93824641  0.03598824  0.37553080    -0.60800
O116        O  0.06205678  0.03388176  0.37558260    -0.69200
O117        O  0.06130357  0.96542122  0.37489879    -0.68800
O118        O  0.93771741  0.96752560  0.37487768    -0.60000
O119        O  0.99951449  0.96787475  0.34403807    -0.72600
O120        O  0.99958620  0.96529952  0.40589133    -0.71300
Cu121      Cu  0.00018753  0.03741628  0.37562239     1.04600
Cu122      Cu  0.99949300  0.96411784  0.37491462     1.04300
C123        C  0.00004083  0.99918826  0.41586063     0.95000
C124        C  0.99985663  0.00250327  0.33472414     0.94100
C125        C  0.91865366  0.00203703  0.37506860     0.86300
C126        C  0.08100288  0.99928978  0.37520137     0.92500
O127        O  0.06297644  0.46540750  0.37527655    -0.71200
O128        O  0.93925326  0.46354244  0.37573506    -0.72200
O129        O  0.00074281  0.46396058  0.34458857    -0.60800
O130        O  0.00152701  0.46491435  0.40641215    -0.69200
O131        O  0.00002291  0.53339478  0.40615613    -0.68800
O132        O  0.99924754  0.53243946  0.34433217    -0.60000
O133        O  0.93782471  0.53201876  0.37546996    -0.72600
O134        O  0.06143020  0.53388337  0.37501674    -0.71300
Cu135      Cu  0.00117751  0.46203000  0.37551403     1.04600
Cu136      Cu  0.99957473  0.53534449  0.37523455     1.04300
C137        C  0.08152192  0.49994884  0.37505945     0.95000
C138        C  0.91921600  0.49752245  0.37568248     0.94100
C139        C  0.99992344  0.49806055  0.33480082     0.86300
C140        C  0.00087443  0.49929346  0.41594115     0.92500
O141        O  0.43705342  0.03362266  0.37550277    -0.71200
O142        O  0.56083486  0.03581543  0.37500528    -0.72200
O143        O  0.49847313  0.03579495  0.34439766    -0.60800
O144        O  0.49930481  0.03382612  0.40620894    -0.69200
O145        O  0.50095556  0.96536169  0.40571643    -0.68800
O146        O  0.50014690  0.96731905  0.34388224    -0.60000
O147        O  0.56238049  0.96734948  0.37449615    -0.72600
O148        O  0.43881344  0.96515719  0.37498146    -0.71300
Cu149      Cu  0.49886894  0.03719338  0.37530866     1.04600
Cu150      Cu  0.50064769  0.96389064  0.37475958     1.04300
C151        C  0.41861516  0.99901733  0.37528475     0.95000
C152        C  0.58093338  0.00187457  0.37457679     0.94100
C153        C  0.49918490  0.00185552  0.33448942     0.86300
C154        C  0.50010102  0.99931276  0.41562899     0.92500
O155        O  0.43826910  0.46651984  0.37522798    -0.71200
O156        O  0.56199083  0.46485373  0.37533136    -0.72200
O157        O  0.50007937  0.46625570  0.40618617    -0.60800
O158        O  0.50019433  0.46509182  0.34436170    -0.69200
O159        O  0.50061261  0.53357367  0.34406253    -0.68800
O160        O  0.50050412  0.53473589  0.40587696    -0.60000
O161        O  0.56238372  0.53333009  0.37501255    -0.72600
O162        O  0.43870187  0.53499599  0.37491254    -0.71300
Cu163      Cu  0.50011260  0.46325731  0.37528816     1.04600
Cu164      Cu  0.50056126  0.53657273  0.37495246     1.04300
C165        C  0.41915937  0.50101947  0.37503204     0.95000
C166        C  0.58151421  0.49884660  0.37521982     0.94100
C167        C  0.50035358  0.50066265  0.41568999     0.86300
C168        C  0.50039743  0.49917240  0.33455566     0.92500
O169        O  0.93739392  0.03386144  0.62487476    -0.71200
O170        O  0.06117821  0.03393292  0.62557121    -0.72200
O171        O  0.00005440  0.03360685  0.59432623    -0.60800
O172        O  0.99849769  0.03441035  0.65614550    -0.69200
O173        O  0.99900533  0.96592833  0.65640431    -0.68800
O174        O  0.00059539  0.96512500  0.59450966    -0.60000
O175        O  0.06160564  0.96545055  0.62580903    -0.72600
O176        O  0.93800660  0.96537877  0.62509758    -0.71300
Cu177      Cu  0.99926438  0.03637158  0.62522543     1.04600
Cu178      Cu  0.99982391  0.96305512  0.62546830     1.04300
C179        C  0.91837565  0.99957348  0.62488408     0.95000
C180        C  0.08071890  0.99966476  0.62574481     0.94100
C181        C  0.00060005  0.99927961  0.58475264     0.86300
C182        C  0.99845283  0.00031695  0.66593822     0.92500
O183        O  0.00013757  0.46477908  0.59443531    -0.71200
O184        O  0.99947916  0.46543458  0.65625757    -0.72200
O185        O  0.93796594  0.46475698  0.62517947    -0.60800
O186        O  0.06165085  0.46543996  0.62551510    -0.69200
O187        O  0.06080439  0.53392283  0.62532488    -0.68800
O188        O  0.93712446  0.53324219  0.62499699    -0.60000
O189        O  0.99863566  0.53392296  0.65607241    -0.72600
O190        O  0.99927972  0.53326838  0.59426563    -0.71300
Cu191      Cu  0.99983523  0.46268147  0.62535478     1.04600
Cu192      Cu  0.99892575  0.53600610  0.62515828     1.04300
C193        C  0.99979069  0.49893772  0.58469456     0.95000
C194        C  0.99901152  0.49977730  0.66582207     0.94100
C195        C  0.91822493  0.49889926  0.62502504     0.86300
C196        C  0.08055386  0.49978277  0.62547546     0.92500
O197        O  0.43796593  0.96459524  0.62539696    -0.71200
O198        O  0.56158197  0.96447639  0.62509415    -0.72200
O199        O  0.50008236  0.96491275  0.65622256    -0.60800
O200        O  0.49943953  0.96430361  0.59430490    -0.69200
O201        O  0.49901232  0.03278304  0.59414657    -0.68800
O202        O  0.49965696  0.03338840  0.65602040    -0.60000
O203        O  0.56121589  0.03295973  0.62491406    -0.72600
O204        O  0.43746899  0.03307906  0.62521860    -0.71300
Cu205      Cu  0.49978509  0.96215969  0.62526485     1.04600
Cu206      Cu  0.49932645  0.03547273  0.62507258     1.04300
C207        C  0.41839408  0.99882690  0.62531563     0.95000
C208        C  0.58072300  0.99867574  0.62494749     0.94100
C209        C  0.49998993  0.99926321  0.66579515     0.86300
C210        C  0.49907380  0.99846535  0.58455613     0.92500
O211        O  0.43765675  0.46694699  0.62520768    -0.71200
O212        O  0.56132269  0.46618613  0.62514336    -0.72200
O213        O  0.49955826  0.46689521  0.65610888    -0.60800
O214        O  0.49953418  0.46624182  0.59425214    -0.69200
O215        O  0.49945962  0.53472554  0.59406855    -0.68800
O216        O  0.49947612  0.53537387  0.65594122    -0.60000
O217        O  0.56125949  0.53467097  0.62495504    -0.72600
O218        O  0.43753783  0.53542741  0.62501546    -0.71300
Cu219      Cu  0.49950224  0.46415599  0.62518517     1.04600
Cu220      Cu  0.49941389  0.53747229  0.62498780     1.04300
C221        C  0.41826679  0.50128862  0.62513300     0.95000
C222        C  0.58061131  0.50030650  0.62502053     0.94100
C223        C  0.49959618  0.50121907  0.66569420     0.86300
C224        C  0.49962063  0.50038602  0.58449799     0.92500
C225        C  0.70624507  0.49944915  0.62485309     0.18700
C226        C  0.72787657  0.48042330  0.60873332    -0.10400
C227        C  0.77096602  0.48014433  0.60872046    -0.11200
C228        C  0.79258863  0.49888983  0.62482788     0.20300
C229        C  0.77095138  0.51790603  0.64094545    -0.13300
C230        C  0.72787137  0.51818509  0.64095835    -0.11500
C231        C  0.83691664  0.49868065  0.62482033     0.01300
C232        C  0.87404826  0.49868883  0.62488883    -0.31600
C233        C  0.66191900  0.49974730  0.62488112     0.02600
C234        C  0.62478797  0.50001841  0.62494364    -0.33200
H235        H  0.71145714  0.46584477  0.59620334     0.13700
H236        H  0.78739129  0.46535956  0.59617905     0.13500
H237        H  0.78736427  0.53249813  0.65347390     0.13400
H238        H  0.71145204  0.53298262  0.65349751     0.12400
C239        C  0.29258579  0.50107274  0.62539201     0.18700
C240        C  0.27104662  0.50290223  0.64408334    -0.10400
C241        C  0.22795614  0.50258144  0.64416422    -0.11200
C242        C  0.20622341  0.50042616  0.62555383     0.20300
C243        C  0.22776546  0.49855563  0.60686695    -0.13300
C244        C  0.27084890  0.49887628  0.60678614    -0.11500
C245        C  0.16188341  0.50018618  0.62561527     0.01300
C246        C  0.12474445  0.50000930  0.62558375    -0.31600
C247        C  0.33692706  0.50138441  0.62529863     0.02600
C248        C  0.37406852  0.50148057  0.62520788    -0.33200
H249        H  0.28754001  0.50458408  0.65856167     0.13700
H250        H  0.21161452  0.50403232  0.65870326     0.13500
H251        H  0.21127703  0.49687454  0.59238816     0.13400
H252        H  0.28718453  0.49742607  0.59224576     0.12400
C253        C  0.79272843  0.99853613  0.62461058     0.18700
C254        C  0.77117132  0.99531228  0.64323711    -0.10400
C255        C  0.72808891  0.99512830  0.64326918    -0.11200
C256        C  0.70637720  0.99816574  0.62467428     0.20300
C257        C  0.72793188  0.00124311  0.60603961    -0.13300
C258        C  0.77101988  0.00142713  0.60600764    -0.11500
C259        C  0.66204328  0.99832635  0.62473113     0.01300
C260        C  0.62490750  0.99854290  0.62481930    -0.31600
C261        C  0.83705814  0.99902241  0.62460466     0.02600
C262        C  0.87419033  0.99940909  0.62468629    -0.33200
H263        H  0.78764667  0.99303710  0.65770976     0.13700
H264        H  0.71173373  0.99271918  0.65776501     0.13500
H265        H  0.71145196  0.00359135  0.59157160     0.13400
H266        H  0.78737743  0.00390921  0.59151566     0.12400
C267        C  0.29274672  0.99828076  0.62530114     0.18700
C268        C  0.27092528  0.00765111  0.60725842    -0.10400
C269        C  0.22783386  0.00781782  0.60736075    -0.11200
C270        C  0.20638827  0.99861764  0.62550629     0.20300
C271        C  0.22821602  0.98906240  0.64352084    -0.13300
C272        C  0.27130058  0.98889565  0.64341844    -0.11500
C273        C  0.16204994  0.99913602  0.62566553     0.01300
C274        C  0.12491078  0.99953671  0.62577302    -0.31600
C275        C  0.33707808  0.99851480  0.62526614     0.02600
C276        C  0.37421080  0.99875598  0.62529761    -0.33200
H277        H  0.28719640  0.01492656  0.59316005     0.13700
H278        H  0.21126799  0.01521291  0.59333841     0.13500
H279        H  0.21194809  0.98186547  0.65763172     0.13400
H280        H  0.28786585  0.98157956  0.65745266     0.12400
C281        C  0.50074372  0.50020479  0.52167377     0.18700
C282        C  0.47192167  0.47683372  0.51077367    -0.10400
C283        C  0.47198162  0.47709798  0.48923434    -0.11200
C284        C  0.50086211  0.50073449  0.47850163     0.20300
C285        C  0.52975190  0.52404893  0.48939564    -0.13300
C286        C  0.52969214  0.52378495  0.51094327    -0.11500
C287        C  0.50079744  0.50103349  0.45634032     0.01300
C288        C  0.50057766  0.50101246  0.43777543    -0.31600
C289        C  0.50044628  0.50013686  0.54383894     0.02600
C290        C  0.50002779  0.50017842  0.56240613    -0.33200
H291        H  0.44940351  0.45849744  0.51891645     0.13700
H292        H  0.44952336  0.45894317  0.48096073     0.13500
H293        H  0.55223556  0.54241817  0.48124643     0.13400
H294        H  0.55211595  0.54197291  0.51922109     0.12400
C295        C  0.49864070  0.99845872  0.52168740     0.18700
C296        C  0.53420353  0.00994685  0.51095000    -0.10400
C297        C  0.53443908  0.00996081  0.48940468    -0.11200
C298        C  0.49911478  0.99848431  0.47848655     0.20300
C299        C  0.46351235  0.98705246  0.48921777    -0.13300
C300        C  0.46327657  0.98703843  0.51077306    -0.13100
C301        C  0.49944416  0.99849097  0.45630689     0.01300
C302        C  0.49984332  0.99871051  0.43773185    -0.31600
C303        C  0.49852306  0.99833696  0.54386983     0.02600
C304        C  0.49871362  0.99831477  0.56244778    -0.33200
H305        H  0.56171581  0.01884680  0.51922595     0.13700
H306        H  0.56212604  0.01888389  0.48126977     0.13500
H307        H  0.43600871  0.97815021  0.48093519     0.13400
H308        H  0.43559747  0.97811311  0.51891344     0.12400
C309        C  0.00029791  0.49912587  0.52189929     0.18700
C310        C  0.03632210  0.50924579  0.51119901    -0.10400
C311        C  0.03653651  0.50948080  0.48965860    -0.11200
C312        C  0.00072328  0.49960210  0.47874079     0.20300
C313        C  0.96468746  0.48952513  0.48944212    -0.13300
C314        C  0.96447300  0.48928997  0.51098180    -0.11500
C315        C  0.00096079  0.49968836  0.45658502     0.01300
C316        C  0.00101620  0.49959365  0.43802281    -0.31600
C317        C  0.00009561  0.49886218  0.54405363     0.02600
C318        C  0.99995985  0.49877639  0.56261479    -0.33200
H319        H  0.06418574  0.51691548  0.51949674     0.13700
H320        H  0.06456657  0.51731296  0.48153151     0.13500
H321        H  0.93682829  0.48183485  0.48114526     0.13400
H322        H  0.93644913  0.48143753  0.51910841     0.12400
C323        C  0.70718572  0.49774327  0.37564427     0.18700
C324        C  0.72864591  0.49776250  0.39437093    -0.10400
C325        C  0.77174209  0.49748307  0.39446594    -0.11200
C326        C  0.79355174  0.49717806  0.37583451     0.20300
C327        C  0.77208522  0.49719925  0.35711383    -0.13300
C328        C  0.72900149  0.49747852  0.35701883    -0.11500
C329        C  0.83789291  0.49694936  0.37590362     0.01300
C330        C  0.87503203  0.49699750  0.37584445    -0.31600
C331        C  0.66284487  0.49801287  0.37552322     0.02600
C332        C  0.62570559  0.49831265  0.37537022    -0.33200
H333        H  0.71208878  0.49798776  0.40886440     0.13700
H334        H  0.78802623  0.49750539  0.40903073     0.13500
H335        H  0.78863499  0.49700034  0.34261780     0.13400
H336        H  0.71272480  0.49748287  0.34245163     0.12400
C337        C  0.29349626  0.50222215  0.37478151     0.18700
C338        C  0.27180431  0.50257766  0.39344256    -0.10400
C339        C  0.22872527  0.50239714  0.39341969    -0.11200
C340        C  0.20714471  0.50185642  0.37473602     0.20300
C341        C  0.22882733  0.50163969  0.35606803    -0.13300
C342        C  0.27191886  0.50182040  0.35609104    -0.11500
C343        C  0.16281923  0.50128444  0.37474408     0.01300
C344        C  0.12569412  0.50066407  0.37486038    -0.31600
C345        C  0.33783305  0.50200555  0.37482885     0.02600
C346        C  0.37497070  0.50161484  0.37492345    -0.33200
H347        H  0.28817545  0.50288537  0.40798275     0.13700
H348        H  0.21226943  0.50256938  0.40794204     0.13500
H349        H  0.21245002  0.50122243  0.34153180     0.13400
H350        H  0.28838257  0.50153886  0.34157113     0.12400
C351        C  0.00116454  0.99900324  0.47870878     0.18700
C352        C  0.96391573  0.00052872  0.48959627    -0.10400
C353        C  0.96405517  0.00075135  0.51113929    -0.11200
C354        C  0.00144537  0.99945480  0.52190185     0.20300
C355        C  0.03872048  0.99812231  0.51101917    -0.13300
C356        C  0.03858089  0.99789982  0.48946546    -0.11500
C357        C  0.00148978  0.99929398  0.54407855     0.01300
C358        C  0.00119010  0.99914634  0.56265235    -0.31600
C359        C  0.00092623  0.99857384  0.45653325     0.02600
C360        C  0.00049442  0.99851430  0.43795990    -0.33200
H361        H  0.93481020  0.00145740  0.48143914     0.13700
H362        H  0.93505437  0.00182744  0.51939411     0.13500
H363        H  0.06781582  0.99715318  0.51918251     0.13400
H364        H  0.06757197  0.99678287  0.48120457     0.12400
C365        C  0.79298885  0.00216192  0.37398254     0.18700
C366        C  0.77123218  0.99279502  0.39200357    -0.10400
C367        C  0.72816191  0.99276530  0.39190349    -0.11200
C368        C  0.70661329  0.00210088  0.37378124     0.20300
C369        C  0.72835231  0.01125270  0.35571094    -0.13300
C370        C  0.77146524  0.01128236  0.35581112    -0.11500
C371        C  0.66226201  0.00241828  0.37381571     0.01300
C372        C  0.62512075  0.00244761  0.37413069    -0.31600
C373        C  0.83732932  0.00252646  0.37421756     0.02600
C374        C  0.87446299  0.00258496  0.37463696    -0.33200
H375        H  0.78755279  0.98564398  0.40612990     0.13700
H376        H  0.71167662  0.98559304  0.40595391     0.13500
H377        H  0.71200736  0.01846382  0.34160073     0.13400
H378        H  0.78797515  0.01851463  0.34177744     0.12400
C379        C  0.20664667  0.99676724  0.37496621     0.18700
C380        C  0.22821702  0.98548124  0.39281319    -0.10400
C381        C  0.27130633  0.98542199  0.39288507    -0.11200
C382        C  0.29299984  0.99664857  0.37510841     0.20300
C383        C  0.27142816  0.00765428  0.35722007    -0.13300
C384        C  0.22834389  0.00771395  0.35714830    -0.11500
C385        C  0.33732350  0.99729757  0.37526988     0.01300
C386        C  0.37444457  0.99811775  0.37533237    -0.31600
C387        C  0.16231501  0.99754269  0.37500454     0.02600
C388        C  0.12518410  0.99840798  0.37509301    -0.33200
H389        H  0.21174714  0.97694691  0.40667326     0.13700
H390        H  0.28767378  0.97684102  0.40679865     0.13500
H391        H  0.28789397  0.01636937  0.34338651     0.13400
H392        H  0.21197714  0.01647636  0.34326174     0.12400
C393        C  0.50046667  0.50095628  0.72856390     0.18700
C394        C  0.49681029  0.46368264  0.73928720    -0.10400
C395        C  0.49685709  0.46341697  0.76084063    -0.11200
C396        C  0.50055888  0.50042651  0.77177160     0.20300
C397        C  0.50433071  0.53768153  0.76104545    -0.13300
C398        C  0.50428378  0.53794684  0.73949465    -0.11500
C399        C  0.50039154  0.50021884  0.79395844     0.01300
C400        C  0.50029158  0.50022023  0.81253939    -0.31600
C401        C  0.50016650  0.50125431  0.70638068     0.02600
C402        C  0.49985966  0.50137196  0.68780276    -0.33200
H403        H  0.49385643  0.43489305  0.73099762     0.13700
H404        H  0.49394323  0.43442565  0.76896731     0.13500
H405        H  0.50723264  0.56647952  0.76933311     0.13400
H406        H  0.50714518  0.56694571  0.73136831     0.12400
C407        C  0.50116221  0.00048228  0.72868220     0.18700
C408        C  0.47515191  0.02749116  0.73949736    -0.10400
C409        C  0.47556793  0.02794532  0.76105006    -0.11200
C410        C  0.50199926  0.00139587  0.77189469     0.20300
C411        C  0.52805177  0.97443202  0.76107905    -0.13300
C412        C  0.52763636  0.97397862  0.73952743    -0.11500
C413        C  0.50220062  0.00162901  0.79408483     0.01300
C414        C  0.50215563  0.00158864  0.81266769    -0.31600
C415        C  0.50067561  0.99994715  0.70649371     0.02600
C416        C  0.50031551  0.99955200  0.68791220    -0.33200
H417        H  0.45455935  0.04812887  0.73127984     0.13700
H418        H  0.45527290  0.04890766  0.76924524     0.13500
H419        H  0.54859884  0.95374983  0.76929689     0.13400
H420        H  0.54788921  0.95297112  0.73133314     0.12400
C421        C  0.50047551  0.70734799  0.87569356     0.18700
C422        C  0.53152487  0.72868804  0.86527235    -0.10400
C423        C  0.53158945  0.77176871  0.86522191    -0.11200
C424        C  0.50060363  0.79372332  0.87559174     0.20300
C425        C  0.46957192  0.77239617  0.88604989    -0.13300
C426        C  0.46950729  0.72929093  0.88610028    -0.11500
C427        C  0.50065905  0.83806843  0.87544917     0.01300
C428        C  0.50083968  0.87520962  0.87528049    -0.31600
C429        C  0.50039094  0.66300147  0.87563729     0.02600
C430        C  0.50050452  0.62585710  0.87548223    -0.33200
H431        H  0.55561965  0.71203785  0.85717863     0.13700
H432        H  0.55573532  0.78793983  0.85709157     0.13500
H433        H  0.44546365  0.78906208  0.89412553     0.13400
H434        H  0.44534694  0.71310459  0.89421297     0.12400
C435        C  0.50015983  0.20736823  0.87672686     0.18700
C436        C  0.51496179  0.22907949  0.89381480    -0.10400
C437        C  0.51487390  0.27217975  0.89370067    -0.11200
C438        C  0.49998505  0.29370920  0.87649952     0.20300
C439        C  0.48495906  0.27198580  0.85947671    -0.13300
C440        C  0.48504640  0.22891554  0.85959071    -0.11500
C441        C  0.50038420  0.33802532  0.87621826     0.01300
C442        C  0.50068972  0.37514561  0.87584351    -0.31600
C443        C  0.50073574  0.16304175  0.87665987     0.02600
C444        C  0.50110678  0.12591395  0.87634095    -0.33200
H445        H  0.52669143  0.21272122  0.90715352     0.13700
H446        H  0.52653649  0.28868078  0.90695389     0.13500
H447        H  0.47334979  0.28832769  0.84610452     0.13400
H448        H  0.47350364  0.21243100  0.84630434     0.12400
C449        C  0.00016163  0.50002429  0.72862092     0.18700
C450        C  0.01807405  0.46690341  0.73927371    -0.10400
C451        C  0.01876462  0.46684205  0.76081326    -0.11200
C452        C  0.00155091  0.49990835  0.77177937     0.20300
C453        C  0.98367724  0.53304670  0.76112491    -0.13300
C454        C  0.98298587  0.53310746  0.73958668    -0.11500
C455        C  0.00202249  0.49976875  0.79393686     0.01300
C456        C  0.00206329  0.49975613  0.81250074    -0.31600
C457        C  0.99945277  0.50006463  0.70646632     0.02600
C458        C  0.99907807  0.49999266  0.68790450    -0.33200
H459        H  0.03145589  0.44117520  0.73093939     0.13700
H460        H  0.03264608  0.44105540  0.76890191     0.13500
H461        H  0.97026536  0.55875981  0.76945779     0.13400
H462        H  0.96907338  0.55887765  0.73149913     0.12400
C463        C  0.99745690  0.00087500  0.77195176     0.18700
C464        C  0.98089175  0.96752240  0.76113893    -0.10400
C465        C  0.98066679  0.96764661  0.73959404    -0.11200
C466        C  0.99700359  0.00112304  0.72877123     0.20300
C467        C  0.01340166  0.03456240  0.73958532    -0.13300
C468        C  0.01362559  0.03443840  0.76113163    -0.11500
C469        C  0.99727994  0.00097588  0.70660135     0.01300
C470        C  0.99776183  0.00067788  0.68803240    -0.31600
C471        C  0.99806287  0.00056042  0.79411668     0.02600
C472        C  0.99863729  0.00029996  0.81268274    -0.33200
H473        H  0.96829581  0.94142075  0.76935114     0.13700
H474        H  0.96791658  0.94162964  0.73138763     0.13500
H475        H  0.02611864  0.06060431  0.73137239     0.13400
H476        H  0.02649497  0.06039589  0.76933988     0.12400
C477        C  0.00144128  0.70694109  0.87399952     0.18700
C478        C  0.02425884  0.72833951  0.88880054    -0.10400
C479        C  0.02408882  0.77141995  0.88892695    -0.11200
C480        C  0.00109760  0.79332558  0.87425256     0.20300
C481        C  0.97845501  0.77194302  0.85936402    -0.13300
C482        C  0.97862467  0.72883203  0.85923776    -0.11500
C483        C  0.00057963  0.83767313  0.87458377     0.01300
C484        C  0.00027292  0.87481332  0.87497180    -0.31600
C485        C  0.00118808  0.66259208  0.87412275     0.02600
C486        C  0.00104158  0.62545158  0.87446380    -0.33200
H487        H  0.04202049  0.71173197  0.90028002     0.13700
H488        H  0.04173280  0.78762959  0.90049748     0.13500
H489        H  0.96059222  0.78856759  0.84793131     0.13400
H490        H  0.96087906  0.71260473  0.84771405     0.12400
C491        C  0.99989780  0.29330613  0.87436598     0.18700
C492        C  0.02388637  0.27148874  0.86005118    -0.10400
C493        C  0.02372910  0.22839475  0.86001210    -0.11200
C494        C  0.99957907  0.20697450  0.87428689     0.20300
C495        C  0.97544994  0.22880557  0.88852614    -0.13300
C496        C  0.97560732  0.27187586  0.88856532    -0.11500
C497        C  0.99974468  0.16265338  0.87445439     0.01300
C498        C  0.99982955  0.12552822  0.87476625    -0.31600
C499        C  0.00034557  0.33761989  0.87458538     0.02600
C500        C  0.00060698  0.37474213  0.87487402    -0.33200
H501        H  0.04276527  0.28776164  0.84899510     0.13700
H502        H  0.04249525  0.21181131  0.84892858     0.13500
H503        H  0.95665777  0.21254504  0.89962507     0.13400
H504        H  0.95692885  0.28844448  0.89969178     0.12400
C505        C  0.50035426  0.49934429  0.27175855     0.18700
C506        C  0.52437135  0.52801100  0.26108975    -0.10400
C507        C  0.52440294  0.52844243  0.23954995    -0.11200
C508        C  0.50041267  0.50020869  0.22860043     0.20300
C509        C  0.47637011  0.47156437  0.23926964    -0.13300
C510        C  0.47633759  0.47113328  0.26080923    -0.11500
C511        C  0.50049277  0.50056529  0.20644523     0.01300
C512        C  0.50044347  0.50064025  0.18788323    -0.31600
C513        C  0.50033348  0.49893151  0.29391326     0.02600
C514        C  0.50036343  0.49885327  0.31247505    -0.33200
H515        H  0.54303769  0.54997206  0.26941232     0.13700
H516        H  0.54310166  0.55072403  0.23144799     0.13500
H517        H  0.45770487  0.44960128  0.23094732     0.13400
H518        H  0.45764062  0.44885239  0.26891062     0.12400
C519        C  0.50079237  0.49923510  0.97867314     0.18700
C520        C  0.51667221  0.46529374  0.98948333    -0.10400
C521        C  0.51604278  0.46498410  0.01102932    -0.11200
C522        C  0.49952548  0.49861072  0.02184201     0.20300
C523        C  0.48363040  0.53252393  0.01102705    -0.13300
C524        C  0.48426014  0.53283352  0.98949045    -0.11500
C525        C  0.49910008  0.49847669  0.04400546     0.01300
C526        C  0.49896885  0.49869504  0.06257218    -0.31600
C527        C  0.50130762  0.49958293  0.95651047     0.02600
C528        C  0.50141332  0.49999677  0.93794422    -0.33200
H529        H  0.52950802  0.43913862  0.98126981     0.13700
H530        H  0.52843969  0.43861165  0.01924163     0.13500
H531        H  0.47081198  0.55869521  0.01923537     0.13400
H532        H  0.47188075  0.55922327  0.98128360     0.12400
C533        C  0.49895245  0.00233849  0.27172544     0.18700
C534        C  0.52567850  0.97580211  0.26107419    -0.10400
C535        C  0.52565152  0.97526930  0.23954441    -0.11200
C536        C  0.49889569  0.00126870  0.22859087     0.20300
C537        C  0.47218931  0.02784479  0.23923684    -0.13300
C538        C  0.47221509  0.02837687  0.26077446    -0.11500
C539        C  0.49891562  0.00069281  0.20645182     0.01300
C540        C  0.49912820  0.00023482  0.18790053    -0.31600
C541        C  0.49887777  0.00266777  0.29386794     0.02600
C542        C  0.49894965  0.00250360  0.31242239    -0.33200
H543        H  0.54646201  0.95553852  0.26940368     0.13700
H544        H  0.54643192  0.95462024  0.23145155     0.13500
H545        H  0.45139198  0.04808455  0.23090210     0.13400
H546        H  0.45141884  0.04900092  0.26887142     0.12400
C547        C  0.50080529  0.00075958  0.02193943     0.18700
C548        C  0.51039489  0.03667971  0.01102325    -0.10400
C549        C  0.51007555  0.03652309  0.98947987    -0.11200
C550        C  0.50016072  0.00045016  0.97877874     0.20300
C551        C  0.49051356  0.96455933  0.98969899    -0.13300
C552        C  0.49083274  0.96471587  0.01123636    -0.11500
C553        C  0.50004635  0.00020645  0.95662125     0.01300
C554        C  0.50013766  0.00002264  0.93805809    -0.31600
C555        C  0.50115845  0.00083720  0.04409476     0.02600
C556        C  0.50123622  0.00065297  0.06265641    -0.33200
H557        H  0.51812798  0.06472437  0.01915181     0.13700
H558        H  0.51758638  0.06444591  0.98118140     0.13500
H559        H  0.48280842  0.93650123  0.98157423     0.13400
H560        H  0.48334886  0.93678163  0.01953161     0.12400
C561        C  0.50113303  0.79310894  0.12502969     0.18700
C562        C  0.47672521  0.77178737  0.11084842    -0.10400
C563        C  0.47661123  0.72870135  0.11078997    -0.11200
C564        C  0.50090542  0.70673445  0.12491208     0.20300
C565        C  0.52539503  0.72804775  0.13906767    -0.13300
C566        C  0.52550900  0.77114688  0.13912613    -0.11500
C567        C  0.50058760  0.66239184  0.12490694     0.01300
C568        C  0.50024574  0.62525201  0.12490399    -0.31600
C569        C  0.50103972  0.83745698  0.12514265     0.02600
C570        C  0.50081665  0.87460335  0.12519339    -0.33200
H571        H  0.45776784  0.78845316  0.09987736     0.13700
H572        H  0.45756804  0.71253942  0.09977449     0.13500
H573        H  0.54430798  0.71137384  0.15005456     0.13400
H574        H  0.54450920  0.78731654  0.15015767     0.12400
C575        C  0.50026585  0.20677044  0.12566616     0.18700
C576        C  0.49145315  0.22834261  0.14384959    -0.10400
C577        C  0.49134303  0.27142865  0.14389810    -0.11200
C578        C  0.50004366  0.29310626  0.12576288     0.20300
C579        C  0.50897204  0.27153215  0.10759425    -0.13300
C580        C  0.50908207  0.22844884  0.10754562    -0.11500
C581        C  0.49970954  0.33742853  0.12577518     0.01300
C582        C  0.49948422  0.37455861  0.12571366    -0.31600
C583        C  0.50013677  0.16245066  0.12558455     0.02600
C584        C  0.50001797  0.12532288  0.12550244    -0.33200
H585        H  0.48461281  0.21187872  0.15794810     0.13700
H586        H  0.48442008  0.28781027  0.15803368     0.13500
H587        H  0.51576243  0.28799516  0.09348863     0.13400
H588        H  0.51595474  0.21206929  0.09340340     0.12400
C589        C  0.99980769  0.49798766  0.27198324     0.18700
C590        C  0.03360028  0.48198933  0.26110842    -0.10400
C591        C  0.03363576  0.48238963  0.23956463    -0.11200
C592        C  0.99988437  0.49879616  0.22881237     0.20300
C593        C  0.96608232  0.51476358  0.23968794    -0.13300
C594        C  0.96604624  0.51436271  0.26122986    -0.11500
C595        C  0.99994031  0.49924787  0.20665000     0.01300
C596        C  0.00003069  0.49953129  0.18808401    -0.31600
C597        C  0.99981940  0.49774475  0.29414641     0.02600
C598        C  0.99982592  0.49776824  0.31271280    -0.33200
H599        H  0.05987140  0.46926505  0.26927153     0.13700
H600        H  0.05992860  0.46995540  0.23130494     0.13500
H601        H  0.93982248  0.52751500  0.23152599     0.13400
H602        H  0.93976473  0.52682313  0.26948824     0.12400
C603        C  0.99977473  0.49926697  0.97867255     0.18700
C604        C  0.02145097  0.46847113  0.98934538    -0.10400
C605        C  0.02179722  0.46825452  0.01090095    -0.11200
C606        C  0.00047015  0.49883515  0.02189009     0.20300
C607        C  0.97875927  0.52959910  0.01121531    -0.13300
C608        C  0.97841316  0.52981558  0.98966280    -0.11500
C609        C  0.00085055  0.49868402  0.04408231     0.01300
C610        C  0.00098520  0.49872670  0.06266672    -0.31600
C611        C  0.99958731  0.49961425  0.95648127     0.02600
C612        C  0.99964579  0.49991285  0.93789804    -0.33200
H613        H  0.03808905  0.44469916  0.98101404     0.13700
H614        H  0.03868251  0.44430913  0.01898464     0.13500
H615        H  0.96215155  0.55339413  0.01954404     0.13400
H616        H  0.96155798  0.55378427  0.98158094     0.12400
C617        C  0.00049944  0.00299620  0.27195272     0.18700
C618        C  0.96392387  0.99636863  0.26103833    -0.10400
C619        C  0.96441507  0.99516719  0.23951198    -0.11200
C620        C  0.00148346  0.00057319  0.22882502     0.20300
C621        C  0.03803872  0.00734366  0.23973588    -0.13300
C622        C  0.03754796  0.00854496  0.26126516    -0.11500
C623        C  0.00194810  0.99928371  0.20668757     0.01300
C624        C  0.00198602  0.99855656  0.18813393    -0.31600
C625        C  0.00010969  0.00354154  0.29409807     0.02600
C626        C  0.99991823  0.00335750  0.31265482    -0.33200
H627        H  0.93511918  0.99200610  0.26915954     0.13700
H628        H  0.93597039  0.98996210  0.23121491     0.13500
H629        H  0.06685846  0.01160968  0.23161384     0.13400
H630        H  0.06600661  0.01365249  0.26956538     0.12400
C631        C  0.00013589  0.00114454  0.97884338     0.18700
C632        C  0.00095314  0.96388137  0.98974302    -0.10400
C633        C  0.00045961  0.96402509  0.01129025    -0.11200
C634        C  0.99913776  0.00143092  0.02204567     0.20300
C635        C  0.99822656  0.03870202  0.01114915    -0.13300
C636        C  0.99871974  0.03855823  0.98959628    -0.11500
C637        C  0.99898752  0.00152447  0.04422847     0.01300
C638        C  0.99915716  0.00129750  0.06280614    -0.31600
C639        C  0.00069722  0.00096376  0.95666051     0.02600
C640        C  0.00092858  0.00072724  0.93808160    -0.33200
H641        H  0.00201440  0.93476995  0.98159380     0.13700
H642        H  0.00118146  0.93502200  0.01955333     0.13500
H643        H  0.99721099  0.06780870  0.01930199     0.13400
H644        H  0.99804318  0.06755779  0.98133080     0.12400
C645        C  0.00170715  0.79257628  0.12583164     0.18700
C646        C  0.96500055  0.77128643  0.12942333    -0.10400
C647        C  0.96494331  0.72819603  0.12956618    -0.11200
C648        C  0.00159389  0.70620167  0.12611857     0.20300
C649        C  0.03835890  0.72749000  0.12267152    -0.13300
C650        C  0.03841643  0.77058529  0.12252853    -0.11500
C651        C  0.00138698  0.66185866  0.12590009     0.01300
C652        C  0.00115544  0.62472096  0.12560822    -0.31600
C653        C  0.00163538  0.83691793  0.12542211     0.02600
C654        C  0.00143332  0.87405992  0.12512366    -0.33200
H655        H  0.93644873  0.78797596  0.13202055     0.13700
H656        H  0.93634418  0.71205469  0.13226113     0.13500
H657        H  0.06688306  0.71079557  0.12000198     0.13400
H658        H  0.06698596  0.78672907  0.11976119     0.12400
C659        C  0.00048067  0.20621697  0.12752387     0.18700
C660        C  0.02204070  0.22750403  0.11220645    -0.10400
C661        C  0.02204174  0.27056888  0.11205435    -0.11200
C662        C  0.00048158  0.29256521  0.12722001     0.20300
C663        C  0.97908815  0.27129993  0.14262179    -0.13300
C664        C  0.97908659  0.22819179  0.14277366    -0.11500
C665        C  0.00015470  0.33689156  0.12685078     0.01300
C666        C  0.00007256  0.37401391  0.12634279    -0.31600
C667        C  0.00008310  0.16189102  0.12741882     0.02600
C668        C  0.99998035  0.12476745  0.12697067    -0.33200
H669        H  0.03869023  0.21081976  0.10034732     0.13700
H670        H  0.03870077  0.28669791  0.10008412     0.13500
H671        H  0.96233209  0.28800973  0.15443238     0.13400
H672        H  0.96231838  0.21203688  0.15469596     0.12400
loop_ 
_geom_bond_atom_site_label_1 
_geom_bond_atom_site_label_2 
_geom_bond_distance 
_geom_bond_site_symmetry_2 
_ccdc_geom_bond_type 
O1           Cu9   2.009   1_545  S
O1           C11   1.276       .  A
O2           Cu9   2.009       .  S
O2           C12   1.276       .  A
O3           Cu9   2.010   1_545  S
O3           C13   1.277   1_455  A
O4           Cu9   2.008       .  S
O4           C14   1.276       .  A
O5          Cu10   2.007       .  S
O5           C14   1.276   1_655  A
O6          Cu10   2.010   1_545  S
O6           C13   1.276       .  A
O7          Cu10   2.010       .  S
O7           C12   1.276   1_655  A
O8          Cu10   2.010   1_545  S
O8           C11   1.276   1_655  A
Cu9         Cu10   2.380   1_455  S
C11         C668   1.434   1_455  S
C12         C654   1.435       .  S
C13         C638   1.435       .  S
C14         C624   1.433       .  S
O15         Cu23   2.009       .  S
O15          C25   1.276       .  A
O16         Cu23   2.009       .  S
O16          C26   1.276       .  A
O17         Cu23   2.009       .  S
O17          C27   1.276       .  A
O18         Cu23   2.012       .  S
O18          C28   1.277       .  A
O19         Cu24   2.011       .  S
O19          C28   1.277   1_655  A
O20         Cu24   2.009       .  S
O20          C27   1.276   1_655  A
O21         Cu24   2.010       .  S
O21          C26   1.276   1_655  A
O22         Cu24   2.009       .  S
O22          C25   1.276   1_655  A
Cu23        Cu24   2.380   1_455  S
C25         C666   1.434       .  S
C26         C652   1.435       .  S
C27         C596   1.434       .  S
C28         C610   1.436       .  S
O29         Cu37   2.007       .  S
O29          C39   1.276       .  A
O30         Cu37   2.009   1_545  S
O30          C40   1.276       .  A
O31         Cu37   2.008   1_545  S
O31          C41   1.276       .  A
O32         Cu37   2.009       .  S
O32          C42   1.276       .  A
O33         Cu38   2.011   1_565  S
O33          C42   1.277       .  A
O34         Cu38   2.010       .  S
O34          C41   1.276       .  A
O35         Cu38   2.007       .  S
O35          C40   1.276       .  A
O36         Cu38   2.007       .  S
O36          C39   1.276   1_545  A
Cu37        Cu38   2.380   1_565  S
C39         C540   1.433   1_565  S
C40         C556   1.433       .  S
C41         C584   1.434       .  S
C42         C570   1.435       .  S
O43         Cu51   2.010       .  S
O43          C53   1.276       .  A
O44         Cu51   2.011       .  S
O44          C54   1.277       .  A
O45         Cu51   2.009       .  S
O45          C55   1.276       .  A
O46         Cu51   2.008       .  S
O46          C56   1.276       .  A
O47         Cu52   2.008       .  S
O47          C56   1.276       .  A
O48         Cu52   2.008       .  S
O48          C55   1.276       .  A
O49         Cu52   2.008       .  S
O49          C54   1.276       .  A
O50         Cu52   2.008       .  S
O50          C53   1.276       .  A
Cu51        Cu52   2.380       .  S
C53         C582   1.434       .  S
C54         C568   1.435       .  S
C55         C526   1.434       .  S
C56         C512   1.434       .  S
O57         Cu65   2.008       .  S
O57          C67   1.276   1_455  A
O58         Cu65   2.009   1_565  S
O58          C68   1.276       .  A
O59         Cu65   2.010   1_565  S
O59          C69   1.277   1_465  A
O60         Cu65   2.012       .  S
O60          C70   1.277       .  A
O61         Cu66   2.009       .  S
O61          C70   1.276   1_655  A
O62         Cu66   2.008       .  S
O62          C69   1.276       .  A
O63         Cu66   2.010   1_565  S
O63          C68   1.277   1_655  A
O64         Cu66   2.009       .  S
O64          C67   1.276       .  A
Cu65        Cu66   2.380   1_455  S
C67         C498   1.434       .  S
C68         C484   1.435       .  S
C69         C472   1.434       .  S
C70         C640   1.436       .  S
O71         Cu79   2.010       .  S
O71          C81   1.276   1_655  A
O72         Cu79   2.008       .  S
O72          C82   1.276   1_655  A
O73         Cu79   2.011       .  S
O73          C83   1.277   1_655  A
O74         Cu79   2.008       .  S
O74          C84   1.276   1_655  A
O75         Cu80   2.009       .  S
O75          C84   1.276       .  A
O76         Cu80   2.011       .  S
O76          C83   1.277       .  A
O77         Cu80   2.009       .  S
O77          C82   1.276       .  A
O78         Cu80   2.010       .  S
O78          C81   1.276       .  A
Cu79        Cu80   2.380   1_655  S
C81         C486   1.435       .  S
C82         C500   1.434       .  S
C83         C612   1.436   1_455  S
C84         C456   1.434       .  S
O85         Cu93   2.011   1_565  S
O85          C95   1.277       .  A
O86         Cu93   2.010       .  S
O86          C96   1.276       .  A
O87         Cu93   2.008   1_565  S
O87          C97   1.276   1_565  A
O88         Cu93   2.011       .  S
O88          C98   1.277       .  A
O89         Cu94   2.011       .  S
O89          C98   1.277       .  A
O90         Cu94   2.009       .  S
O90          C97   1.276       .  A
O91         Cu94   2.008       .  S
O91          C96   1.276       .  A
O92         Cu94   2.009   1_565  S
O92          C95   1.276       .  A
Cu93        Cu94   2.380       .  S
C95         C428   1.435       .  S
C96         C444   1.434       .  S
C97         C554   1.434       .  S
C98         C414   1.436       .  S
O99        Cu107   2.007       .  S
O99         C109   1.276       .  A
O100       Cu107   2.009       .  S
O100        C110   1.276       .  A
O101       Cu107   2.011       .  S
O101        C111   1.277       .  A
O102       Cu107   2.009       .  S
O102        C112   1.276       .  A
O103       Cu108   2.009       .  S
O103        C112   1.276       .  A
O104       Cu108   2.010       .  S
O104        C111   1.276       .  A
O105       Cu108   2.011       .  S
O105        C110   1.277       .  A
O106       Cu108   2.010       .  S
O106        C109   1.277       .  A
Cu107      Cu108   2.380       .  S
C109        C442   1.434       .  S
C110        C430   1.435       .  S
C111        C400   1.436       .  S
C112        C528   1.434       .  S
O113       Cu121   2.008       .  S
O113        C123   1.276   1_545  A
O114       Cu121   2.007       .  S
O114        C124   1.276   1_455  A
O115       Cu121   2.012   1_655  S
O115        C125   1.277       .  A
O116       Cu121   2.011       .  S
O116        C126   1.277   1_545  A
O117       Cu122   2.007   1_455  S
O117        C126   1.276       .  A
O118       Cu122   2.008       .  S
O118        C125   1.276   1_565  A
O119       Cu122   2.008       .  S
O119        C124   1.276   1_565  A
O120       Cu122   2.011       .  S
O120        C123   1.277   1_655  A
Cu121      Cu122   2.380   1_445  S
C123        C360   1.435       .  S
C124        C626   1.433       .  S
C125        C374   1.435       .  S
C126        C388   1.434       .  S
O127       Cu135   2.010       .  S
O127        C137   1.277       .  A
O128       Cu135   2.011   1_655  S
O128        C138   1.277       .  A
O129       Cu135   2.009       .  S
O129        C139   1.276   1_455  A
O130       Cu135   2.008       .  S
O130        C140   1.276       .  A
O131       Cu136   2.008   1_455  S
O131        C140   1.276       .  A
O132       Cu136   2.008       .  S
O132        C139   1.276       .  A
O133       Cu136   2.008       .  S
O133        C138   1.276       .  A
O134       Cu136   2.008   1_455  S
O134        C137   1.276       .  A
Cu135      Cu136   2.380   1_455  S
C137        C344   1.434       .  S
C138        C330   1.435       .  S
C139        C598   1.434       .  S
C140        C316   1.434       .  S
O141       Cu149   2.011       .  S
O141        C151   1.277   1_545  A
O142       Cu149   2.012       .  S
O142        C152   1.277       .  A
O143       Cu149   2.007       .  S
O143        C153   1.276       .  A
O144       Cu149   2.009       .  S
O144        C154   1.276   1_545  A
O145       Cu150   2.010       .  S
O145        C154   1.277       .  A
O146       Cu150   2.008       .  S
O146        C153   1.276   1_565  A
O147       Cu150   2.008       .  S
O147        C152   1.276   1_565  A
O148       Cu150   2.008       .  S
O148        C151   1.276       .  A
Cu149      Cu150   2.380   1_545  S
C151        C386   1.434       .  S
C152        C372   1.435       .  S
C153        C542   1.433       .  S
C154        C302   1.435       .  S
O155       Cu163   2.010       .  S
O155        C165   1.276       .  A
O156       Cu163   2.010       .  S
O156        C166   1.276       .  A
O157       Cu163   2.008       .  S
O157        C167   1.276       .  A
O158       Cu163   2.009       .  S
O158        C168   1.276       .  A
O159       Cu164   2.008       .  S
O159        C168   1.276       .  A
O160       Cu164   2.008       .  S
O160        C167   1.276       .  A
O161       Cu164   2.009       .  S
O161        C166   1.276       .  A
O162       Cu164   2.009       .  S
O162        C165   1.276       .  A
Cu163      Cu164   2.380       .  S
C165        C346   1.435       .  S
C166        C332   1.435       .  S
C167        C288   1.434       .  S
C168        C514   1.434       .  S
O169       Cu177   2.011       .  S
O169        C179   1.277   1_545  A
O170       Cu177   2.011   1_455  S
O170        C180   1.277   1_545  A
O171       Cu177   2.008   1_455  S
O171        C181   1.276   1_545  A
O172       Cu177   2.008       .  S
O172        C182   1.276       .  A
O173       Cu178   2.011       .  S
O173        C182   1.277   1_565  A
O174       Cu178   2.011   1_455  S
O174        C181   1.277       .  A
O175       Cu178   2.008   1_455  S
O175        C180   1.276       .  A
O176       Cu178   2.008       .  S
O176        C179   1.276       .  A
Cu177      Cu178   2.380   1_545  S
C179        C262   1.435       .  S
C180        C274   1.435       .  S
C181        C358   1.435       .  S
C182        C470   1.435       .  S
O183       Cu191   2.008   1_455  S
O183        C193   1.276   1_455  A
O184       Cu191   2.008       .  S
O184        C194   1.276       .  A
O185       Cu191   2.009       .  S
O185        C195   1.276       .  A
O186       Cu191   2.009   1_455  S
O186        C196   1.276       .  A
O187       Cu192   2.010   1_455  S
O187        C196   1.276       .  A
O188       Cu192   2.009       .  S
O188        C195   1.276       .  A
O189       Cu192   2.008       .  S
O189        C194   1.276       .  A
O190       Cu192   2.008       .  S
O190        C193   1.276       .  A
Cu191      Cu192   2.380       .  S
C193        C318   1.433       .  S
C194        C458   1.434       .  S
C195        C232   1.434       .  S
C196        C246   1.435       .  S
O197       Cu205   2.008       .  S
O197        C207   1.276       .  A
O198       Cu205   2.008       .  S
O198        C208   1.276       .  A
O199       Cu205   2.012       .  S
O199        C209   1.277       .  A
O200       Cu205   2.011       .  S
O200        C210   1.277       .  A
O201       Cu206   2.010       .  S
O201        C210   1.276   1_545  A
O202       Cu206   2.010       .  S
O202        C209   1.276   1_545  A
O203       Cu206   2.010       .  S
O203        C208   1.277   1_545  A
O204       Cu206   2.010       .  S
O204        C207   1.277   1_545  A
Cu205      Cu206   2.380   1_565  S
C207        C276   1.434       .  S
C208        C260   1.434       .  S
C209        C416   1.436       .  S
C210        C304   1.435       .  S
O211       Cu219   2.009       .  S
O211        C221   1.276       .  A
O212       Cu219   2.009       .  S
O212        C222   1.276       .  A
O213       Cu219   2.010       .  S
O213        C223   1.276       .  A
O214       Cu219   2.009       .  S
O214        C224   1.276       .  A
O215       Cu220   2.009       .  S
O215        C224   1.276       .  A
O216       Cu220   2.011       .  S
O216        C223   1.277       .  A
O217       Cu220   2.009       .  S
O217        C222   1.276       .  A
O218       Cu220   2.010       .  S
O218        C221   1.276       .  A
Cu219      Cu220   2.380       .  S
C221        C248   1.435       .  S
C222        C234   1.434       .  S
C223        C402   1.435       .  S
C224        C290   1.434       .  S
C225        C233   1.439       .  S
C225        C226   1.401       .  A
C225        C230   1.401       .  A
C226        C227   1.399       .  A
C226        H235   1.083       .  S
C227        C228   1.401       .  A
C227        H236   1.083       .  S
C228        C231   1.439       .  S
C228        C229   1.401       .  A
C229        C230   1.399       .  A
C229        H237   1.083       .  S
C230        H238   1.083       .  S
C231        C232   1.205       .  T
C233        C234   1.205       .  T
C239        C247   1.440       .  S
C239        C240   1.401       .  A
C239        C244   1.401       .  A
C240        C241   1.399       .  A
C240        H249   1.083       .  S
C241        C242   1.401       .  A
C241        H250   1.083       .  S
C242        C245   1.440       .  S
C242        C243   1.401       .  A
C243        C244   1.399       .  A
C243        H251   1.083       .  S
C244        H252   1.083       .  S
C245        C246   1.206       .  T
C247        C248   1.206       .  T
C253        C261   1.439       .  S
C253        C254   1.401       .  A
C253        C258   1.401   1_565  A
C254        C255   1.399       .  A
C254        H263   1.084       .  S
C255        C256   1.401       .  A
C255        H264   1.083       .  S
C256        C259   1.439       .  S
C256        C257   1.401   1_565  A
C257        C258   1.399       .  A
C257        H265   1.083       .  S
C258        H266   1.083       .  S
C259        C260   1.206       .  T
C261        C262   1.206       .  T
C267        C275   1.439       .  S
C267        C268   1.401   1_565  A
C267        C272   1.401       .  A
C268        C269   1.399       .  A
C268        H277   1.083       .  S
C269        C270   1.401   1_545  A
C269        H278   1.083       .  S
C270        C273   1.439       .  S
C270        C271   1.401       .  A
C271        C272   1.399       .  A
C271        H279   1.084       .  S
C272        H280   1.084       .  S
C273        C274   1.206       .  T
C275        C276   1.206       .  T
C281        C289   1.439       .  S
C281        C282   1.401       .  A
C281        C286   1.401       .  A
C282        C283   1.398       .  A
C282        H291   1.083       .  S
C283        C284   1.401       .  A
C283        H292   1.084       .  S
C284        C287   1.439       .  S
C284        C285   1.401       .  A
C285        C286   1.399       .  A
C285        H293   1.084       .  S
C286        H294   1.083       .  S
C287        C288   1.205       .  T
C289        C290   1.205       .  T
C295        C303   1.440       .  S
C295        C296   1.401   1_565  A
C295        C300   1.402       .  A
C296        C297   1.399       .  A
C296        H305   1.083       .  S
C297        C298   1.401   1_545  A
C297        H306   1.084       .  S
C298        C301   1.440       .  S
C298        C299   1.402       .  A
C299        C300   1.399       .  A
C299        H307   1.083       .  S
C300        H308   1.084       .  S
C301        C302   1.206       .  T
C303        C304   1.206       .  T
C309        C317   1.438       .  S
C309        C310   1.401       .  A
C309        C314   1.401   1_455  A
C310        C311   1.398       .  A
C310        H319   1.084       .  S
C311        C312   1.401       .  A
C311        H320   1.084       .  S
C312        C315   1.438       .  S
C312        C313   1.401   1_455  A
C313        C314   1.398       .  A
C313        H321   1.084       .  S
C314        H322   1.083       .  S
C315        C316   1.205       .  T
C317        C318   1.205   1_455  T
C323        C331   1.439       .  S
C323        C324   1.401       .  A
C323        C328   1.401       .  A
C324        C325   1.399       .  A
C324        H333   1.083       .  S
C325        C326   1.401       .  A
C325        H334   1.083       .  S
C326        C329   1.439       .  S
C326        C327   1.401       .  A
C327        C328   1.399       .  A
C327        H335   1.084       .  S
C328        H336   1.083       .  S
C329        C330   1.206       .  T
C331        C332   1.206       .  T
C337        C345   1.439       .  S
C337        C338   1.401       .  A
C337        C342   1.401       .  A
C338        C339   1.399       .  A
C338        H347   1.084       .  S
C339        C340   1.401       .  A
C339        H348   1.083       .  S
C340        C343   1.439       .  S
C340        C341   1.401       .  A
C341        C342   1.399       .  A
C341        H349   1.083       .  S
C342        H350   1.083       .  S
C343        C344   1.206       .  T
C345        C346   1.206       .  T
C351        C359   1.440       .  S
C351        C352   1.401   1_465  A
C351        C356   1.402       .  A
C352        C353   1.399       .  A
C352        H361   1.084       .  S
C353        C354   1.401   1_645  A
C353        H362   1.084       .  S
C354        C357   1.440       .  S
C354        C355   1.401       .  A
C355        C356   1.399       .  A
C355        H363   1.083       .  S
C356        H364   1.083       .  S
C357        C358   1.206       .  T
C359        C360   1.206       .  T
C365        C373   1.440       .  S
C365        C366   1.401   1_545  A
C365        C370   1.402       .  A
C366        C367   1.398       .  A
C366        H375   1.084       .  S
C367        C368   1.401   1_565  A
C367        H376   1.083       .  S
C368        C371   1.440       .  S
C368        C369   1.402       .  A
C369        C370   1.400       .  A
C369        H377   1.083       .  S
C370        H378   1.083       .  S
C371        C372   1.206       .  T
C373        C374   1.206       .  T
C379        C387   1.439       .  S
C379        C380   1.401       .  A
C379        C384   1.401   1_565  A
C380        C381   1.399       .  A
C380        H389   1.083       .  S
C381        C382   1.401       .  A
C381        H390   1.083       .  S
C382        C385   1.439       .  S
C382        C383   1.401   1_565  A
C383        C384   1.399       .  A
C383        H391   1.084       .  S
C384        H392   1.083       .  S
C385        C386   1.206       .  T
C387        C388   1.206       .  T
C393        C401   1.440       .  S
C393        C394   1.401       .  A
C393        C398   1.401       .  A
C394        C395   1.399       .  A
C394        H403   1.083       .  S
C395        C396   1.401       .  A
C395        H404   1.083       .  S
C396        C399   1.440       .  S
C396        C397   1.401       .  A
C397        C398   1.399       .  A
C397        H405   1.083       .  S
C398        H406   1.083       .  S
C399        C400   1.206       .  T
C401        C402   1.206       .  T
C407        C415   1.441   1_545  S
C407        C408   1.401       .  A
C407        C412   1.401   1_545  A
C408        C409   1.399       .  A
C408        H417   1.083       .  S
C409        C410   1.401       .  A
C409        H418   1.083       .  S
C410        C413   1.441       .  S
C410        C411   1.401   1_545  A
C411        C412   1.399       .  A
C411        H419   1.083       .  S
C412        H420   1.084       .  S
C413        C414   1.206       .  T
C415        C416   1.206       .  T
C421        C429   1.440       .  S
C421        C422   1.401       .  A
C421        C426   1.402       .  A
C422        C423   1.398       .  A
C422        H431   1.084       .  S
C423        C424   1.401       .  A
C423        H432   1.084       .  S
C424        C427   1.440       .  S
C424        C425   1.402       .  A
C425        C426   1.399       .  A
C425        H433   1.084       .  S
C426        H434   1.084       .  S
C427        C428   1.206       .  T
C429        C430   1.206       .  T
C435        C443   1.439       .  S
C435        C436   1.401       .  A
C435        C440   1.401       .  A
C436        C437   1.399       .  A
C436        H445   1.083       .  S
C437        C438   1.401       .  A
C437        H446   1.083       .  S
C438        C441   1.439       .  S
C438        C439   1.401       .  A
C439        C440   1.398       .  A
C439        H447   1.084       .  S
C440        H448   1.084       .  S
C441        C442   1.205       .  T
C443        C444   1.205       .  T
C449        C457   1.438   1_455  S
C449        C450   1.401       .  A
C449        C454   1.401   1_455  A
C450        C451   1.399       .  A
C450        H459   1.084       .  S
C451        C452   1.401       .  A
C451        H460   1.084       .  S
C452        C455   1.439       .  S
C452        C453   1.401   1_455  A
C453        C454   1.398       .  A
C453        H461   1.083       .  S
C454        H462   1.083       .  S
C455        C456   1.205       .  T
C457        C458   1.205       .  T
C463        C471   1.439       .  S
C463        C464   1.401   1_545  A
C463        C468   1.401   1_655  A
C464        C465   1.399       .  A
C464        H473   1.083       .  S
C465        C466   1.401   1_565  A
C465        H474   1.083       .  S
C466        C469   1.439       .  S
C466        C467   1.401   1_655  A
C467        C468   1.399       .  A
C467        H475   1.083       .  S
C468        H476   1.084       .  S
C469        C470   1.206       .  T
C471        C472   1.205       .  T
C477        C485   1.440       .  S
C477        C478   1.401       .  A
C477        C482   1.402   1_455  A
C478        C479   1.398       .  A
C478        H487   1.084       .  S
C479        C480   1.401       .  A
C479        H488   1.084       .  S
C480        C483   1.440       .  S
C480        C481   1.402   1_455  A
C481        C482   1.399       .  A
C481        H489   1.083       .  S
C482        H490   1.083       .  S
C483        C484   1.206       .  T
C485        C486   1.206       .  T
C491        C499   1.439   1_655  S
C491        C492   1.401   1_655  A
C491        C496   1.401       .  A
C492        C493   1.399       .  A
C492        H501   1.083       .  S
C493        C494   1.401   1_455  A
C493        H502   1.084       .  S
C494        C497   1.439       .  S
C494        C495   1.401       .  A
C495        C496   1.398       .  A
C495        H503   1.084       .  S
C496        H504   1.084       .  S
C497        C498   1.205       .  T
C499        C500   1.205       .  T
C505        C513   1.438       .  S
C505        C506   1.401       .  A
C505        C510   1.401       .  A
C506        C507   1.398       .  A
C506        H515   1.084       .  S
C507        C508   1.401       .  A
C507        H516   1.084       .  S
C508        C511   1.438       .  S
C508        C509   1.401       .  A
C509        C510   1.398       .  A
C509        H517   1.084       .  S
C510        H518   1.083       .  S
C511        C512   1.205       .  T
C513        C514   1.205       .  T
C519        C527   1.439       .  S
C519        C520   1.401       .  A
C519        C524   1.401       .  A
C520        C521   1.399   1_556  A
C520        H529   1.083       .  S
C521        C522   1.401       .  A
C521        H530   1.084       .  S
C522        C525   1.439       .  S
C522        C523   1.401       .  A
C523        C524   1.398   1_554  A
C523        H531   1.084       .  S
C524        H532   1.084       .  S
C525        C526   1.205       .  T
C527        C528   1.205       .  T
C533        C541   1.438       .  S
C533        C534   1.401   1_545  A
C533        C538   1.401       .  A
C534        C535   1.398       .  A
C534        H543   1.084       .  S
C535        C536   1.401   1_565  A
C535        H544   1.084       .  S
C536        C539   1.437       .  S
C536        C537   1.401       .  A
C537        C538   1.398       .  A
C537        H545   1.083       .  S
C538        H546   1.083       .  S
C539        C540   1.204       .  T
C541        C542   1.205       .  T
C547        C555   1.438       .  S
C547        C548   1.401       .  A
C547        C552   1.401   1_545  A
C548        C549   1.399   1_554  A
C548        H557   1.083       .  S
C549        C550   1.401       .  A
C549        H558   1.084       .  S
C550        C553   1.438       .  S
C550        C551   1.401   1_545  A
C551        C552   1.398   1_556  A
C551        H559   1.084       .  S
C552        H560   1.084       .  S
C553        C554   1.205       .  T
C555        C556   1.205       .  T
C561        C569   1.440       .  S
C561        C562   1.401       .  A
C561        C566   1.401       .  A
C562        C563   1.399       .  A
C562        H571   1.084       .  S
C563        C564   1.401       .  A
C563        H572   1.084       .  S
C564        C567   1.440       .  S
C564        C565   1.401       .  A
C565        C566   1.399       .  A
C565        H573   1.083       .  S
C566        H574   1.084       .  S
C567        C568   1.206       .  T
C569        C570   1.206       .  T
C575        C583   1.439       .  S
C575        C576   1.401       .  A
C575        C580   1.401       .  A
C576        C577   1.399       .  A
C576        H585   1.083       .  S
C577        C578   1.401       .  A
C577        H586   1.083       .  S
C578        C581   1.439       .  S
C578        C579   1.401       .  A
C579        C580   1.399       .  A
C579        H587   1.084       .  S
C580        H588   1.083       .  S
C581        C582   1.205       .  T
C583        C584   1.205       .  T
C589        C597   1.439       .  S
C589        C590   1.401   1_655  A
C589        C594   1.401       .  A
C590        C591   1.399       .  A
C590        H599   1.083       .  S
C591        C592   1.401   1_455  A
C591        H600   1.084       .  S
C592        C595   1.439       .  S
C592        C593   1.401       .  A
C593        C594   1.399       .  A
C593        H601   1.083       .  S
C594        H602   1.083       .  S
C595        C596   1.205   1_655  T
C597        C598   1.205       .  T
C603        C611   1.441       .  S
C603        C604   1.402   1_655  A
C603        C608   1.401       .  A
C604        C605   1.399   1_556  A
C604        H613   1.083       .  S
C605        C606   1.401       .  A
C605        H614   1.083       .  S
C606        C609   1.441       .  S
C606        C607   1.401   1_455  A
C607        C608   1.399   1_554  A
C607        H615   1.083       .  S
C608        H616   1.083       .  S
C609        C610   1.207       .  T
C611        C612   1.206       .  T
C617        C625   1.438       .  S
C617        C618   1.401   1_445  A
C617        C622   1.401       .  A
C618        C619   1.398       .  A
C618        H627   1.084       .  S
C619        C620   1.401   1_665  A
C619        H628   1.084       .  S
C620        C623   1.438   1_545  S
C620        C621   1.401       .  A
C621        C622   1.398       .  A
C621        H629   1.084       .  S
C622        H630   1.084       .  S
C623        C624   1.205       .  T
C625        C626   1.205   1_455  T
C631        C639   1.440       .  S
C631        C632   1.401   1_545  A
C631        C636   1.402   1_455  A
C632        C633   1.399   1_556  A
C632        H641   1.083       .  S
C633        C634   1.401   1_465  A
C633        H642   1.084       .  S
C634        C637   1.440       .  S
C634        C635   1.401       .  A
C635        C636   1.399   1_554  A
C635        H643   1.083       .  S
C636        H644   1.083       .  S
C637        C638   1.206       .  T
C639        C640   1.206       .  T
C645        C653   1.440       .  S
C645        C646   1.401   1_455  A
C645        C650   1.401       .  A
C646        C647   1.399       .  A
C646        H655   1.083       .  S
C647        C648   1.401   1_655  A
C647        H656   1.083       .  S
C648        C651   1.440       .  S
C648        C649   1.401       .  A
C649        C650   1.399       .  A
C649        H657   1.084       .  S
C650        H658   1.083       .  S
C651        C652   1.206       .  T
C653        C654   1.206       .  T
C659        C667   1.439       .  S
C659        C660   1.401       .  A
C659        C664   1.402   1_455  A
C660        C661   1.398       .  A
C660        H669   1.084       .  S
C661        C662   1.401       .  A
C661        H670   1.084       .  S
C662        C665   1.439       .  S
C662        C663   1.402   1_455  A
C663        C664   1.399       .  A
C663        H671   1.083       .  S
C664        H672   1.083       .  S
C665        C666   1.205       .  T
C667        C668   1.205   1_455  T
