geometry optimzed in LAMMPS
_audit_creation_date              2020-11-30 
_audit_creation_method            'lammps2cif' 
_symmetry_space_group_name_H-M    'P1' 
_symmetry_Int_Tables_number       1 
_symmetry_cell_setting            triclinic 
loop_ 
_symmetry_equiv_pos_as_xyz 
  x,y,z 
_cell_length_a                    33.89694322 
_cell_length_b                    31.56663799961215 
_cell_length_c                    33.250535224650136 
_cell_angle_alpha                 92.51179336033492 
_cell_angle_beta                  87.13915971392596 
_cell_angle_gamma                 110.44764964152098 
loop_ 
_atom_site_label 
_atom_site_type_symbol 
_atom_site_fract_x 
_atom_site_fract_y 
_atom_site_fract_z 
_atom_site_charge 
N1          N  0.86474741  0.68467251  0.71252513    -0.02600
C2          C  0.86779905  0.69886943  0.75185015     0.00000
C3          C  0.82980579  0.70116571  0.76696142    -0.22900
C4          C  0.80234735  0.68825972  0.73620377    -0.23100
C5          C  0.82422849  0.67802776  0.70342131    -0.00100
H6          H  0.82330341  0.71292744  0.79677060     0.13700
H7          H  0.76989919  0.68670073  0.73748302     0.13700
N8          N  0.75881428  0.85728655  0.31277376    -0.02600
C9          C  0.79724410  0.87110475  0.29350598     0.00000
C10         C  0.81628338  0.91747504  0.29724450    -0.22900
C11         C  0.78859134  0.93306824  0.31921176    -0.23100
C12         C  0.75377853  0.89562464  0.32852605    -0.00100
H13         H  0.84621871  0.93795347  0.28370552     0.13700
H14         H  0.79328861  0.96798976  0.32749122     0.13700
N15         N  0.33147216  0.20452097  0.69719482    -0.02600
C16         C  0.28972707  0.18709094  0.70785237     0.00000
C17         C  0.26880958  0.21441692  0.69529045    -0.22900
C18         C  0.29845383  0.25029450  0.67673533    -0.23100
C19         C  0.33635704  0.24337402  0.67801236    -0.00100
H20         H  0.23593420  0.21007410  0.70105400     0.13700
H21         H  0.29305919  0.27865149  0.66392808     0.13700
O22         O  0.59262943  0.57265980  0.51108692    -0.73500
O23         O  0.49284112  0.51262019  0.45233660    -0.73500
O24         O  0.52218663  0.49929756  0.52296871    -0.73600
O25         O  0.56363678  0.58633735  0.44026651    -0.73700
O26         O  0.59923638  0.54495653  0.41107243    -0.73600
O27         O  0.54997422  0.45326353  0.48902533    -0.73600
O28         O  0.52601808  0.47231038  0.41736107    -0.73500
O29         O  0.62257982  0.52539397  0.48286132    -0.73600
Ni30       Ni  0.54168820  0.54431639  0.48271935     1.25400
Ni31       Ni  0.57560093  0.49740601  0.44881919     1.25400
C32         C  0.62357524  0.55818551  0.50739967     0.88700
C33         C  0.49297016  0.48260188  0.42518614     0.88600
C34         C  0.52839634  0.46155082  0.51910121     0.88600
C35         C  0.58962540  0.58083028  0.41302659     0.88800
N36         N  0.21026339  0.29056302  0.28986611    -0.02600
C37         C  0.19185149  0.24855621  0.27285432     0.00000
C38         C  0.21861290  0.22416087  0.27300255    -0.22900
C39         C  0.25507063  0.25193070  0.28969803    -0.23100
C40         C  0.24946348  0.29239995  0.29977316    -0.00100
H41         H  0.21353766  0.19109137  0.25914089     0.13700
H42         H  0.28343734  0.24412700  0.29263321     0.13700
N43         N  0.22304997  0.89056538  0.34960560    -0.02600
C44         C  0.20443026  0.91148808  0.32555850     0.00000
C45         C  0.21659174  0.95699674  0.33569466    -0.22900
C46         C  0.24420873  0.96495911  0.36609694    -0.23100
C47         C  0.24817660  0.92408943  0.37400035    -0.00100
H48         H  0.21001470  0.98261182  0.31942907     0.13700
H49         H  0.26279410  0.99788037  0.37828349     0.13700
N50         N  0.88052129  0.19755833  0.72716886    -0.02600
C51         C  0.89126601  0.19147567  0.76478098     0.00000
C52         C  0.91880355  0.23158543  0.78032458    -0.22900
C53         C  0.92591802  0.26322649  0.75126694    -0.23100
C54         C  0.90245220  0.24164441  0.71878404    -0.00100
H55         H  0.93576678  0.23602273  0.80783314     0.13700
H56         H  0.94915336  0.29702697  0.75207746     0.13700
O57         O  0.06185998  0.56252323  0.54177451    -0.73500
O58         O  0.11088678  0.49976322  0.46370580    -0.73500
O59         O  0.11508861  0.58687069  0.47521956    -0.73600
O60         O  0.05784178  0.47530078  0.52941057    -0.73700
O61         O  0.00115723  0.46433849  0.49337689    -0.73600
O62         O  0.06118307  0.57153696  0.43458720    -0.73600
O63         O  0.05376193  0.48234878  0.42699958    -0.73500
O64         O  0.00882078  0.55262385  0.50110786    -0.73600
Ni65       Ni  0.08841708  0.53166188  0.50392446     1.25400
Ni66       Ni  0.02933562  0.51726743  0.46257050     1.25400
C67         C  0.02730766  0.56811336  0.53411870     0.88700
C68         C  0.08993625  0.47982687  0.43306459     0.88600
C69         C  0.09775670  0.59726501  0.44555200     0.88600
C70         C  0.01977729  0.45195655  0.52073569     0.88800
O71         O  0.56693357  0.96421996  0.55073377    -0.73500
O72         O  0.51625081  0.02398344  0.62994519    -0.73500
O73         O  0.48989100  0.97316619  0.56200223    -0.73600
O74         O  0.59377853  0.01523239  0.61880518    -0.73700
O75         O  0.61636387  0.07607117  0.58061644    -0.73600
O76         O  0.51227260  0.03632360  0.52680042    -0.73600
O77         O  0.54085762  0.08696178  0.59459701    -0.73500
O78         O  0.58707580  0.02598312  0.51371296    -0.73600
Ni79       Ni  0.54091802  0.99190080  0.59182347     1.25400
Ni80       Ni  0.56489329  0.05858684  0.55286055     1.25400
C81         C  0.58477520  0.98525840  0.51887774     0.88700
C82         C  0.51996245  0.06525384  0.62496345     0.88600
C83         C  0.48447755  0.99778492  0.53459334     0.88600
C84         C  0.62263874  0.05208857  0.60794907     0.88800
O85         O  0.14370947  0.05264182  0.96359050    -0.80000
O86         O  0.99390841  0.93924696  0.08157743    -0.64700
O87         O  0.07957722  0.97916311  0.99907351    -1.11300
C88         C  0.97268686  0.01144040  0.93097562     1.06900
O89         O  0.94353979  0.90349551  0.03941868    -0.77900
O90         O  0.96270788  0.90476669  0.96030085    -0.65500
Ni91       Ni  0.13383870  0.02056993  0.01359593     1.34900
C92         C  0.99475069  0.90822868  0.93750224     0.85600
O93         O  0.07062457  0.93652431  0.07236088    -0.78400
O94         O  0.13312016  0.99154994  0.06417166    -0.88700
C95         C  0.95832548  0.90981590  0.07438020     0.85200
O96         O  0.11226630  0.06372141  0.03972770    -0.66900
O97         O  0.94641171  0.98407678  0.95486319    -0.86200
C98         C  0.08419021  0.05564980  0.06800121     0.86000
C99         C  0.10850350  0.95663084  0.08205432     1.07600
H100        H  0.00376180  0.01110636  0.02150493     0.39400
O101        O  0.00549237  0.98363502  0.00884224    -1.08800
O102        O  0.02806109  0.94297048  0.93699954    -0.65500
Ni103      Ni  0.04660139  0.00062570  0.96529330     1.26300
O104        O  0.05645829  0.01648412  0.07301987    -0.65700
O105        O  0.01249078  0.02145867  0.93210893    -0.78000
C106        C  0.12788207  0.04259881  0.92894979     0.85400
O107        O  0.08977939  0.01796351  0.92417406    -0.65200
Ni108      Ni  0.94883216  0.94568383  0.99742456     1.27400
Ni109      Ni  0.03763834  0.96009800  0.04139640     1.26100
H110        H  0.08364659  0.95268250  0.98663685     0.40000
C111        C  0.92087462  0.10369500  0.80066245     0.21200
C112        C  0.95219650  0.08562651  0.80811410    -0.38600
C113        C  0.94780090  0.06378116  0.84479504     0.20200
C114        C  0.91408917  0.05919039  0.87158687     0.22900
C115        C  0.88296304  0.07766786  0.86435575    -0.39100
C116        C  0.88793724  0.10053536  0.82807053     0.21700
N117        N  0.92184113  0.13193556  0.77125992    -0.32400
C118        C  0.89011386  0.14797148  0.78025981    -0.10000
C119        C  0.86807985  0.12890987  0.81546332    -0.28800
N120        N  0.91834626  0.03921782  0.90521524    -0.45400
C121        C  0.95554360  0.03207152  0.90030303    -0.04700
C122        C  0.97477011  0.04679451  0.86286491    -0.22000
H123        H  0.97935935  0.09057554  0.78788221     0.19800
H124        H  0.85810709  0.07662118  0.88644934     0.18600
H125        H  0.84421609  0.13867483  0.83214404     0.14900
H126        H  0.00472348  0.04586119  0.85081025     0.14700
H127        H  0.94581737  0.14396814  0.74920635     0.32900
H128        H  0.89799040  0.03243701  0.93064441     0.35600
C129        C  0.78472898  0.11700076  0.69406743     0.21200
C130        C  0.74351369  0.08562793  0.69926529    -0.38600
C131        C  0.71692974  0.08046472  0.66681982     0.20200
C132        C  0.73055566  0.10508530  0.63221895     0.22900
C133        C  0.77172298  0.13569467  0.62681294    -0.39100
C134        C  0.79819849  0.14058074  0.65897820     0.21700
N135        N  0.81437194  0.13211915  0.72187884    -0.32400
C136        C  0.84691987  0.16573116  0.70440428    -0.10000
C137        C  0.83798662  0.17121284  0.66476626    -0.28800
N138        N  0.69879264  0.09742055  0.60728167    -0.45400
C139        C  0.66447652  0.06743008  0.62568120    -0.04700
C140        C  0.67453738  0.05550049  0.66281763    -0.22000
H141        H  0.73247213  0.06800162  0.72710120     0.19800
H142        H  0.78183039  0.15584643  0.60019976     0.18600
H143        H  0.85625530  0.19582538  0.64337303     0.14900
H144        H  0.65340520  0.03324218  0.68457172     0.14700
H145        H  0.81084275  0.12274411  0.75191368     0.32900
H146        H  0.70021676  0.11240402  0.57958917     0.35600
C147        C  0.91799504  0.30513137  0.62941981     0.21200
C148        C  0.91255901  0.33747407  0.60455681    -0.38600
C149        C  0.94749736  0.36067777  0.57952578     0.20200
C150        C  0.98510576  0.35259973  0.57965893     0.22900
C151        C  0.99010942  0.31946146  0.60356969    -0.39100
C152        C  0.95518278  0.29608390  0.62826068     0.21700
N153        N  0.89232992  0.28368912  0.66014978    -0.32400
C154        C  0.91329036  0.26058216  0.67824451    -0.10000
C155        C  0.95234079  0.26727153  0.65897119    -0.28800
N156        N  0.01530229  0.38321694  0.55774346    -0.45400
C157        C  0.99676333  0.41071595  0.54307525    -0.04700
C158        C  0.95431040  0.39733190  0.55545606    -0.22000
H159        H  0.88418524  0.34591385  0.60634396     0.19800
H160        H  0.01993745  0.31425529  0.60479119     0.18600
H161        H  0.97707562  0.25625242  0.66879661     0.14900
H162        H  0.93235820  0.41428152  0.55010063     0.14700
H163        H  0.86392237  0.28729511  0.67009399     0.32900
H164        H  0.04697685  0.38629941  0.55422733     0.35600
C165        C  0.12506042  0.90788547  0.17226766     0.21200
C166        C  0.11377927  0.88712482  0.20978013    -0.38600
C167        C  0.14736543  0.88969843  0.23411596     0.20200
C168        C  0.18896170  0.91063171  0.22158207     0.22900
C169        C  0.20017721  0.93211803  0.18447208    -0.39100
C170        C  0.16667932  0.93016900  0.16049371     0.21700
N171        N  0.09909645  0.91312550  0.14509778    -0.32400
C172        C  0.12435251  0.93962410  0.11620705    -0.10000
C173        C  0.16673599  0.95093848  0.12482121    -0.28800
N174        N  0.21467627  0.91387567  0.25188222    -0.45400
C175        C  0.18969018  0.89618736  0.28456190    -0.02600
C176        C  0.14734026  0.88053547  0.27444981    -0.22000
H177        H  0.08122377  0.87224182  0.22015574     0.19800
H178        H  0.23259425  0.95108878  0.17586904     0.18600
H179        H  0.19386296  0.97258550  0.10791278     0.14900
H180        H  0.12011245  0.86975095  0.29497096     0.14700
H181        H  0.06619071  0.90115150  0.14701554     0.32900
H182        H  0.24693117  0.93252006  0.25183013     0.35600
C183        C  0.40803299  0.97294513  0.45882693     0.21200
C184        C  0.39325892  0.97572060  0.42079107    -0.38600
C185        C  0.35062401  0.95089691  0.41514910     0.20200
C186        C  0.32423106  0.92594157  0.44532044     0.22900
C187        C  0.33922607  0.92276648  0.48343635    -0.39100
C188        C  0.38233707  0.94688655  0.48884700     0.21700
N189        N  0.44705237  0.99441281  0.47175626    -0.32400
C190        C  0.44676815  0.98152437  0.51011310    -0.10000
C191        C  0.40698611  0.95161443  0.52192044    -0.28800
N192        N  0.28406254  0.90950402  0.43345218    -0.45400
C193        C  0.28522703  0.92344017  0.39520715    -0.04700
C194        C  0.32623952  0.94933157  0.38296924    -0.22000
H195        H  0.41333086  0.99649467  0.39751825     0.19800
H196        H  0.31872288  0.90365734  0.50731172     0.18600
H197        H  0.39727601  0.93620214  0.55090020     0.14900
H198        H  0.33621064  0.96782147  0.35541837     0.14700
H199        H  0.47255874  0.01627218  0.45530955     0.32900
H200        H  0.25726325  0.89243363  0.45105890     0.35600
C201        C  0.16796778  0.70305618  0.40746113     0.21200
C202        C  0.20450542  0.74197178  0.40601141    -0.38600
C203        C  0.20313170  0.77670744  0.38161587     0.20200
C204        C  0.16800248  0.77294108  0.36037615     0.22900
C205        C  0.13164370  0.73381825  0.36141534    -0.39100
C206        C  0.13303634  0.69905072  0.38571376     0.21700
N207        N  0.16018097  0.66700671  0.43082891    -0.32400
C208        C  0.12001058  0.63967504  0.42395261    -0.10000
C209        C  0.10219530  0.65842175  0.39565595    -0.28800
N210        N  0.17259154  0.81240208  0.34344580    -0.45400
C211        C  0.21087858  0.84200431  0.35397995    -0.04700
C212        C  0.23113867  0.82039644  0.37732718    -0.22000
H213        H  0.23133371  0.74576581  0.42400908     0.19800
H214        H  0.10365005  0.73140016  0.34578211     0.18600
H215        H  0.07037457  0.64505604  0.38509921     0.14900
H216        H  0.26105135  0.83465145  0.39146332     0.14700
H217        H  0.18058222  0.66189790  0.45106885     0.32900
H218        H  0.14922893  0.81948369  0.32882181     0.35600
C219        C  0.11184532  0.17986057  0.21139609     0.21200
C220        C  0.08587248  0.13607129  0.19946531    -0.38600
C221        C  0.08571461  0.12573487  0.15791338     0.20200
C222        C  0.11015434  0.15650043  0.13027838     0.22900
C223        C  0.13551819  0.20054153  0.14211771    -0.39100
C224        C  0.13516954  0.21114383  0.18363714     0.21700
N225        N  0.12455757  0.19403451  0.24892596    -0.32400
C226        C  0.15636478  0.23445675  0.24536136    -0.10000
C227        C  0.16287799  0.24667241  0.20503912    -0.28800
N228        N  0.11030448  0.13617690  0.09379933    -0.45400
C229        C  0.08565644  0.09215849  0.09809085    -0.04700
C230        C  0.06921842  0.08462543  0.13757632    -0.22000
H231        H  0.06966989  0.11067037  0.22122964     0.19800
H232        H  0.15667014  0.22365166  0.12093181     0.18600
H233        H  0.18967077  0.27342866  0.19238792     0.14900
H234        H  0.05136619  0.05240237  0.15063946     0.14700
H235        H  0.11660239  0.17429349  0.27452442     0.32900
H236        H  0.12856313  0.15060125  0.06834568     0.35600
C237        C  0.11338189  0.39818159  0.36694456     0.21200
C238        C  0.10614373  0.35580976  0.34739665    -0.38600
C239        C  0.14163191  0.34918105  0.32831154     0.20200
C240        C  0.18111088  0.38252703  0.32812498     0.22900
C241        C  0.18842721  0.42457417  0.34813127    -0.39100
C242        C  0.15320332  0.43085079  0.36788585     0.21700
N243        N  0.08543054  0.41209161  0.38889371    -0.32400
C244        C  0.10782100  0.45347168  0.40460806    -0.10000
C245        C  0.15022183  0.46619557  0.39231821    -0.28800
N246        N  0.21020579  0.36699757  0.31055041    -0.45400
C247        C  0.18955646  0.32281825  0.30067998    -0.04700
C248        C  0.14648116  0.31074541  0.31065037    -0.22000
H249        H  0.07545297  0.32938945  0.34820102     0.19800
H250        H  0.21964519  0.44988997  0.34957356     0.18600
H251        H  0.17553482  0.49690623  0.40063193     0.14900
H252        H  0.12260893  0.27741527  0.30863674     0.14700
H253        H  0.05346480  0.39384029  0.39424378     0.32900
H254        H  0.24226528  0.38542055  0.30684133     0.35600
C255        C  0.41213179  0.41971479  0.35813155     0.21200
C256        C  0.39510712  0.39428590  0.32345117    -0.38600
C257        C  0.35100039  0.37462406  0.32378513     0.20200
C258        C  0.32559216  0.37936091  0.35630464     0.22900
C259        C  0.34264564  0.40526911  0.39087198    -0.39100
C260        C  0.38681514  0.42550427  0.39033108     0.21700
N261        N  0.45316910  0.43960624  0.36615463    -0.32400
C262        C  0.45405837  0.45884832  0.40351179    -0.10000
C263        C  0.41329209  0.45097789  0.41946874    -0.28800
N264        N  0.28507929  0.35320574  0.35082413    -0.45400
C265        C  0.28475198  0.33200378  0.31437733    -0.04700
C266        C  0.32529196  0.34468827  0.29673565    -0.22000
H267        H  0.41482160  0.38894003  0.29855363     0.19800
H268        H  0.32308368  0.40834836  0.41676923     0.18600
H269        H  0.40430712  0.46101344  0.44906076     0.14900
H270        H  0.33505150  0.33102722  0.26914138     0.14700
H271        H  0.47897190  0.43969624  0.34757137     0.32900
H272        H  0.25982375  0.34773310  0.37167008     0.35600
C273        C  0.17562625  0.07429510  0.83111532     0.21200
C274        C  0.17718439  0.07953659  0.78929071    -0.38600
C275        C  0.21684430  0.10443909  0.77221215     0.20200
C276        C  0.25237730  0.12217998  0.79495206     0.22900
C277        C  0.25074224  0.11690879  0.83674101    -0.39100
C278        C  0.21103693  0.09257242  0.85387867     0.21700
N279        N  0.14136306  0.05442242  0.85487874    -0.32400
C280        C  0.15505990  0.06041796  0.89308000    -0.10000
C281        C  0.19835545  0.08402412  0.89360695    -0.28800
N282        N  0.28478064  0.14959476  0.77285221    -0.45400
C283        C  0.26957393  0.15036478  0.73610606    -0.04700
C284        C  0.22751061  0.12198107  0.73438079    -0.22000
H285        H  0.14919182  0.06716999  0.77169096     0.19800
H286        H  0.27798761  0.13255744  0.85488189     0.18600
H287        H  0.21788734  0.09379959  0.91959922     0.14900
H288        H  0.20630267  0.11885418  0.71024001     0.14700
H289        H  0.11052662  0.03820875  0.84572469     0.32900
H290        H  0.31378582  0.17065656  0.78349795     0.35600
C291        C  0.47178100  0.39470015  0.60089143     0.21200
C292        C  0.44567671  0.38604374  0.63582973    -0.38600
C293        C  0.42252960  0.34042916  0.64265613     0.20200
C294        C  0.42527504  0.30586659  0.61680346     0.22900
C295        C  0.45168490  0.31453231  0.58194570    -0.39100
C296        C  0.47485389  0.36026708  0.57505527     0.21700
N297        N  0.49269235  0.43528258  0.58522739    -0.32400
C298        C  0.50906271  0.42673602  0.54908200    -0.10000
C299        C  0.49924535  0.38036861  0.54193989    -0.28800
N300        N  0.39665215  0.26596696  0.62772936    -0.45400
C301        C  0.37558237  0.27542227  0.66060469    -0.04700
C302        C  0.39082070  0.32140033  0.67079883    -0.22000
H303        H  0.44188425  0.41300790  0.65509552     0.19800
H304        H  0.45246096  0.28785246  0.56067732     0.18600
H305        H  0.50592344  0.36360918  0.51471967     0.14900
H306        H  0.37838401  0.33888271  0.69403154     0.14700
H307        H  0.49363709  0.46673357  0.59728322     0.32900
H308        H  0.38994060  0.23483282  0.61232912     0.35600
C309        C  0.42306151  0.17439110  0.69642101     0.21200
C310        C  0.46490596  0.18029319  0.68443530    -0.38600
C311        C  0.47418170  0.14053200  0.67769250     0.20200
C312        C  0.44441269  0.09803683  0.68392146     0.22900
C313        C  0.40253305  0.09218643  0.69588614    -0.39100
C314        C  0.39290230  0.13191494  0.70118527     0.21700
N315        N  0.40517662  0.20630963  0.69823345    -0.32400
C316        C  0.36299156  0.18399207  0.70242359    -0.10000
C317        C  0.35428295  0.13747023  0.70513830    -0.28800
N318        N  0.45920339  0.06563133  0.66984443    -0.45400
C319        C  0.49793247  0.08756669  0.65311822    -0.04700
C320        C  0.50861848  0.13431545  0.65802292    -0.22000
H321        H  0.48759381  0.21323018  0.67739338     0.19800
H322        H  0.37842580  0.05898442  0.69759872     0.18600
H323        H  0.32381235  0.11075840  0.70568517     0.14900
H324        H  0.53593775  0.16022225  0.64514011     0.14700
H325        H  0.42121519  0.24083035  0.69502145     0.32900
H326        H  0.44211228  0.03099619  0.66750420     0.35600
C327        C  0.86633436  0.84123043  0.22646524     0.21200
C328        C  0.90773552  0.85443068  0.21032197    -0.38600
C329        C  0.91230681  0.85777926  0.16840612     0.20200
C330        C  0.87803138  0.84736460  0.14405272     0.22900
C331        C  0.83650520  0.83317786  0.16008569    -0.39100
C332        C  0.83193496  0.83090031  0.20222172     0.21700
N333        N  0.85532036  0.84845514  0.26475869    -0.32400
C334        C  0.81414815  0.84418133  0.26503351    -0.10000
C335        C  0.79807715  0.83153716  0.22679509    -0.28800
N336        N  0.89071577  0.86138115  0.10645716    -0.45400
C337        C  0.93310156  0.88203172  0.10724075    -0.04700
C338        C  0.94783273  0.87960852  0.14512383    -0.22000
H339        H  0.93464739  0.86648965  0.22936835     0.19800
H340        H  0.81007055  0.82931877  0.14149947     0.18600
H341        H  0.76834870  0.83210979  0.21682284     0.14900
H342        H  0.97961664  0.89572609  0.15529090     0.14700
H343        H  0.87614636  0.86304848  0.28777415     0.32900
H344        H  0.87135424  0.86111276  0.08289162     0.35600
C345        C  0.67745293  0.89841882  0.40535254     0.21200
C346        C  0.65886853  0.89268922  0.44444174    -0.38600
C347        C  0.63600069  0.92109661  0.45592283     0.20200
C348        C  0.63221189  0.95282671  0.43036246     0.22900
C349        C  0.65058532  0.95844858  0.39138785    -0.39100
C350        C  0.67336530  0.93017983  0.37999841     0.21700
N351        N  0.70430791  0.87909682  0.38877028    -0.32400
C352        C  0.71754929  0.89913177  0.35290092    -0.10000
C353        C  0.69882322  0.93097029  0.34637445    -0.28800
N354        N  0.61229755  0.97838976  0.44931777    -0.45400
C355        C  0.60321824  0.96302587  0.48728558    -0.04700
C356        C  0.61707498  0.92691675  0.49253614    -0.22000
H357        H  0.66336342  0.86921951  0.46496472     0.19800
H358        H  0.64889910  0.98440150  0.37201685     0.18600
H359        H  0.70539562  0.95393499  0.32165276     0.14900
H360        H  0.61569162  0.90918123  0.51999209     0.14700
H361        H  0.71538316  0.85633583  0.40223745     0.32900
H362        H  0.60650753  0.00571270  0.43752792     0.35600
C363        C  0.67492998  0.75495702  0.33296678     0.21200
C364        C  0.63433606  0.72839703  0.34671628    -0.38600
C365        C  0.62938474  0.68433419  0.35759172     0.20200
C366        C  0.66219394  0.66766229  0.35426007     0.22900
C367        C  0.70285694  0.69432965  0.34072231    -0.39100
C368        C  0.70795983  0.73862019  0.33043225     0.21700
N369        N  0.68855650  0.79912318  0.32461274    -0.32400
C370        C  0.73075111  0.81122263  0.31747947    -0.10000
C371        C  0.74396164  0.77427029  0.32040593    -0.28800
N372        N  0.65061255  0.62659529  0.37038999    -0.45400
C373        C  0.61059794  0.61758321  0.38513525    -0.04700
C374        C  0.59610008  0.65257431  0.37729393    -0.22000
H375        H  0.60906654  0.74189000  0.35077825     0.19800
H376        H  0.72908172  0.68222700  0.34021025     0.18600
H377        H  0.77586652  0.77412346  0.31832791     0.14900
H378        H  0.56649437  0.65594654  0.38753035     0.14700
H379        H  0.67019970  0.81965722  0.32484000     0.32900
H380        H  0.66999647  0.60777573  0.37445170     0.35600
C381        C  0.96588117  0.80416412  0.88148737     0.21200
C382        C  0.94002482  0.75933763  0.87374347    -0.38600
C383        C  0.93510018  0.74578227  0.83304625     0.20200
C384        C  0.95413137  0.77480381  0.80211931     0.22900
C385        C  0.98060921  0.81964454  0.80994803    -0.39100
C386        C  0.98598877  0.83307974  0.85078133     0.21700
N387        N  0.96941382  0.82690437  0.91699227    -0.32400
C388        C  0.99209818  0.87056354  0.90901928    -0.10000
C389        C  0.00373398  0.87568679  0.86818202    -0.28800
N390        N  0.93690537  0.75720715  0.76674541    -0.45400
C391        C  0.90618891  0.71722353  0.77531660    -0.04700
C392        C  0.90516945  0.70861257  0.81622823    -0.22000
H393        H  0.92207694  0.73776461  0.89758672     0.19800
H394        H  0.99324619  0.84342096  0.78605474     0.18600
H395        H  0.01865391  0.90710312  0.85271802     0.14900
H396        H  0.88073901  0.68262478  0.83254563     0.14700
H397        H  0.95447897  0.81420678  0.94440160     0.32900
H398        H  0.94114361  0.77446821  0.73986587     0.35600
C399        C  0.76045322  0.65765693  0.61828485     0.21200
C400        C  0.73074045  0.66540734  0.59457285    -0.38600
C401        C  0.70687521  0.62855699  0.57077367     0.20200
C402        C  0.71238589  0.58710332  0.57027585     0.22900
C403        C  0.74194867  0.57918080  0.59437809    -0.39100
C404        C  0.76587509  0.61616905  0.61836393     0.21700
N405        N  0.78369297  0.68593505  0.64633288    -0.32400
C406        C  0.80416506  0.66261404  0.66461360    -0.10000
C407        C  0.79407845  0.61891213  0.64792469    -0.28800
N408        N  0.68437878  0.55707109  0.54636586    -0.45400
C409        C  0.66055201  0.57947479  0.53217520    -0.04700
C410        C  0.67366512  0.62412146  0.54672547    -0.22000
H411        H  0.72552835  0.69737811  0.59570151     0.19800
H412        H  0.74510390  0.54629000  0.59536582     0.18600
H413        H  0.80312906  0.59175618  0.65841815     0.14900
H414        H  0.66004080  0.64955494  0.54121983     0.14700
H415        H  0.78342078  0.71816514  0.65453787     0.32900
H416        H  0.68047677  0.52296234  0.54140172     0.35600
C417        C  0.94475421  0.65029387  0.66378588     0.21200
C418        C  0.97459058  0.62828584  0.65980312    -0.38600
C419        C  0.98582881  0.61828260  0.62001003     0.20200
C420        C  0.96815234  0.62892406  0.58699242     0.22900
C421        C  0.93899403  0.65137339  0.59095211    -0.39100
C422        C  0.92815812  0.66170056  0.63043604     0.21700
N423        N  0.92588434  0.65987713  0.69796317    -0.32400
C424        C  0.89693790  0.67712782  0.68597762    -0.10000
C425        C  0.89817075  0.67957478  0.64410484    -0.28800
N426        N  0.98124190  0.61305308  0.55266818    -0.45400
C427        C  0.00801866  0.59252699  0.56341214    -0.04700
C428        C  0.01198983  0.59532966  0.60526961    -0.22000
H429        H  0.98712013  0.61844732  0.68571553     0.19800
H430        H  0.92459571  0.65884589  0.56511978     0.18600
H431        H  0.87843870  0.69074550  0.62575025     0.14900
H432        H  0.03004986  0.58082966  0.62261974     0.14700
H433        H  0.93040545  0.65231443  0.72726074     0.32900
H434        H  0.97196753  0.61542659  0.52360613     0.35600
loop_ 
_geom_bond_atom_site_label_1 
_geom_bond_atom_site_label_2 
_geom_bond_distance 
_geom_bond_site_symmetry_2 
_ccdc_geom_bond_type 
N1            C5   1.363       .  A
N1            C2   1.361       .  A
N1          C424   1.447       .  S
C2            C3   1.383       .  A
C2          C391   1.474       .  S
C3            C4   1.368       .  A
C3            H6   1.083       .  S
C4            C5   1.378       .  A
C4            H7   1.082       .  S
C5          C406   1.472       .  S
N8           C12   1.359       .  A
N8            C9   1.357       .  A
N8          C370   1.443       .  S
C9           C10   1.381       .  A
C9          C334   1.471       .  S
C10          C11   1.371       .  A
C10          H13   1.082       .  S
C11          C12   1.381       .  A
C11          H14   1.082       .  S
C12         C352   1.471       .  S
N15          C19   1.362       .  A
N15          C16   1.361       .  A
N15         C316   1.450       .  S
C16          C17   1.382       .  A
C16         C283   1.474       .  S
C17          C18   1.370       .  A
C17          H20   1.082       .  S
C18          C19   1.379       .  A
C18          H21   1.082       .  S
C19         C301   1.470       .  S
O22         Ni30   1.919       .  S
O22          C32   1.281       .  A
O23         Ni30   1.919       .  S
O23          C33   1.281       .  A
O24         Ni30   1.916       .  S
O24          C34   1.281       .  A
O25         Ni30   1.917       .  S
O25          C35   1.281       .  A
O26         Ni31   1.922       .  S
O26          C35   1.281       .  A
O27         Ni31   1.920       .  S
O27          C34   1.281       .  A
O28         Ni31   1.928       .  S
O28          C33   1.283       .  A
O29         Ni31   1.925       .  S
O29          C32   1.282       .  A
Ni30        Ni31   2.387       .  S
C32         C409   1.472       .  S
C33         C262   1.476       .  S
C34         C298   1.469       .  S
C35         C373   1.471       .  S
N36          C40   1.366       .  A
N36          C37   1.363       .  A
N36         C247   1.449       .  S
C37          C38   1.380       .  A
C37         C226   1.477       .  S
C38          C39   1.368       .  A
C38          H41   1.083       .  S
C39          C40   1.381       .  A
C39          H42   1.082       .  S
C40         C265   1.480       .  S
N43          C47   1.366       .  A
N43          C44   1.364       .  A
N43         C211   1.454       .  S
C44          C45   1.380       .  A
C44         C175   1.477       .  S
C45          C46   1.367       .  A
C45          H48   1.083       .  S
C46          C47   1.381       .  A
C46          H49   1.083       .  S
C47         C193   1.477       .  S
N50          C54   1.363       .  A
N50          C51   1.360       .  A
N50         C136   1.449       .  S
C51          C52   1.381       .  A
C51         C118   1.475       .  S
C52          C53   1.372       .  A
C52          H55   1.083       .  S
C53          C54   1.381       .  A
C53          H56   1.083       .  S
C54         C154   1.475       .  S
O57         Ni65   1.933       .  S
O57          C67   1.283       .  A
O58         Ni65   1.923       .  S
O58          C68   1.281       .  A
O59         Ni65   1.930       .  S
O59          C69   1.283       .  A
O60         Ni65   1.927       .  S
O60          C70   1.283       .  A
O61         Ni66   1.921       .  S
O61          C70   1.280       .  A
O62         Ni66   1.927       .  S
O62          C69   1.283       .  A
O63         Ni66   1.930       .  S
O63          C68   1.283       .  A
O64         Ni66   1.923       .  S
O64          C67   1.282       .  A
Ni65        Ni66   2.386       .  S
C67         C427   1.481       .  S
C68         C244   1.477       .  S
C69         C208   1.484       .  S
C70         C157   1.474   1_455  S
O71         Ni79   1.929       .  S
O71          C81   1.283       .  A
O72         Ni79   1.925   1_545  S
O72          C82   1.282       .  A
O73         Ni79   1.931       .  S
O73          C83   1.283       .  A
O74         Ni79   1.933   1_545  S
O74          C84   1.283       .  A
O75         Ni80   1.909       .  S
O75          C84   1.279       .  A
O76         Ni80   1.911       .  S
O76          C83   1.280   1_545  A
O77         Ni80   1.918       .  S
O77          C82   1.281       .  A
O78         Ni80   1.909       .  S
O78          C81   1.279   1_545  A
Ni79        Ni80   2.389   1_565  S
C81         C355   1.471       .  S
C82         C319   1.473       .  S
C83         C190   1.473       .  S
C84         C139   1.474       .  S
O85         Ni91   1.938   1_556  S
O85         C106   1.275       .  A
O86        Ni109   1.901   1_655  S
O86          C95   1.266       .  A
O87         Ni91   1.918   1_566  S
O87        Ni109   1.908   1_556  S
O87        Ni103   1.921   1_565  S
O87         H110   0.966       .  S
C88         C121   1.478       .  S
C88         O105   1.276   1_655  A
C88          O97   1.274   1_545  A
O89        Ni108   1.930   1_554  S
O89          C95   1.269       .  A
O90        Ni108   1.908       .  S
O90          C92   1.268       .  A
Ni91         O94   1.945   1_545  S
Ni91         O96   1.917       .  S
C92         C388   1.468       .  S
C92         O102   1.270   1_655  A
O93        Ni109   1.905       .  S
O93          C99   1.269       .  A
O94          C99   1.277       .  A
C95         C337   1.470       .  S
O96          C98   1.271       .  A
O97        Ni108   1.926       .  S
C98         C229   1.482       .  S
C98         O104   1.277       .  A
C99         C172   1.477       .  S
H100        O101   0.966   1_545  S
O101       Ni109   1.914       .  S
O101       Ni103   1.916   1_564  S
O101       Ni108   1.922   1_454  S
O102       Ni103   1.924   1_565  S
Ni103       O107   1.902       .  S
Ni103       O105   1.926       .  S
O104       Ni109   1.947   1_545  S
C106        C280   1.475       .  S
C106        O107   1.267       .  A
C111        N117   1.343       .  A
C111        C116   1.384       .  A
C111        C112   1.406       .  A
C112        C113   1.403       .  A
C112        H123   1.082       .  S
C113        C122   1.382       .  A
C113        C114   1.384       .  A
C114        N120   1.345       .  A
C114        C115   1.407       .  A
C115        C116   1.406       .  A
C115        H124   1.082       .  S
C116        C119   1.383       .  A
N117        C118   1.355       .  A
N117        H127   1.045       .  S
C118        C119   1.397       .  A
C119        H125   1.082       .  S
N120        C121   1.357       .  A
N120        H128   1.045       .  S
C121        C122   1.396       .  A
C122        H126   1.082   1_655  S
C129        N135   1.346       .  A
C129        C134   1.382       .  A
C129        C130   1.409       .  A
C130        C131   1.408       .  A
C130        H141   1.082       .  S
C131        C140   1.386       .  A
C131        C132   1.384       .  A
C132        N138   1.340       .  A
C132        C133   1.400       .  A
C133        C134   1.399       .  A
C133        H142   1.083       .  S
C134        C137   1.375       .  A
N135        C136   1.361       .  A
N135        H145   1.043       .  S
C136        C137   1.398       .  A
C137        H143   1.078       .  S
N138        C139   1.354       .  A
N138        H146   1.045       .  S
C139        C140   1.398       .  A
C140        H144   1.082       .  S
C147        N153   1.349       .  A
C147        C152   1.385       .  A
C147        C148   1.407       .  A
C148        C149   1.407       .  A
C148        H159   1.082       .  S
C149        C158   1.382       .  A
C149        C150   1.385       .  A
C150        N156   1.345   1_655  A
C150        C151   1.402       .  A
C151        C152   1.402       .  A
C151        H160   1.082   1_655  S
C152        C155   1.375       .  A
N153        C154   1.357       .  A
N153        H163   1.045       .  S
C154        C155   1.393       .  A
C155        H161   1.082       .  S
N156        C157   1.355   1_455  A
N156        H164   1.045       .  S
C157        C158   1.396       .  A
C158        H162   1.082       .  S
C165        N171   1.346       .  A
C165        C170   1.383       .  A
C165        C166   1.407       .  A
C166        C167   1.407       .  A
C166        H177   1.082       .  S
C167        C176   1.384       .  A
C167        C168   1.383       .  A
C168        N174   1.342       .  A
C168        C169   1.405       .  A
C169        C170   1.402       .  A
C169        H178   1.082       .  S
C170        C173   1.380       .  A
N171        C172   1.358       .  A
N171        H181   1.045       .  S
C172        C173   1.395       .  A
C173        H179   1.082       .  S
N174        C175   1.357       .  A
N174        H182   1.045       .  S
C175        C176   1.399       .  A
C176        H180   1.082       .  S
C183        N189   1.341       .  A
C183        C188   1.384       .  A
C183        C184   1.401       .  A
C184        C185   1.400       .  A
C184        H195   1.083       .  S
C185        C194   1.373       .  A
C185        C186   1.384       .  A
C186        N192   1.349       .  A
C186        C187   1.409       .  A
C187        C188   1.409       .  A
C187        H196   1.082       .  S
C188        C191   1.386       .  A
N189        C190   1.354       .  A
N189        H199   1.045   1_565  S
C190        C191   1.398       .  A
C191        H197   1.082       .  S
N192        C193   1.358       .  A
N192        H200   1.044       .  S
C193        C194   1.395       .  A
C194        H198   1.083       .  S
C201        N207   1.347       .  A
C201        C206   1.383       .  A
C201        C202   1.408       .  A
C202        C203   1.407       .  A
C202        H213   1.082       .  S
C203        C212   1.383       .  A
C203        C204   1.381       .  A
C204        N210   1.345       .  A
C204        C205   1.408       .  A
C205        C206   1.406       .  A
C205        H214   1.082       .  S
C206        C209   1.383       .  A
N207        C208   1.358       .  A
N207        H217   1.045       .  S
C208        C209   1.398       .  A
C209        H215   1.082       .  S
N210        C211   1.360       .  A
N210        H218   1.042       .  S
C211        C212   1.402       .  A
C212        H216   1.078       .  S
C219        N225   1.347       .  A
C219        C224   1.383       .  A
C219        C220   1.407       .  A
C220        C221   1.405       .  A
C220        H231   1.082       .  S
C221        C230   1.381       .  A
C221        C222   1.383       .  A
C222        N228   1.348       .  A
C222        C223   1.406       .  A
C223        C224   1.407       .  A
C223        H232   1.082       .  S
C224        C227   1.381       .  A
N225        C226   1.358       .  A
N225        H235   1.045       .  S
C226        C227   1.397       .  A
C227        H233   1.083       .  S
N228        C229   1.358       .  A
N228        H236   1.045       .  S
C229        C230   1.397       .  A
C230        H234   1.083       .  S
C237        N243   1.348       .  A
C237        C242   1.384       .  A
C237        C238   1.408       .  A
C238        C239   1.408       .  A
C238        H249   1.082       .  S
C239        C248   1.382       .  A
C239        C240   1.384       .  A
C240        N246   1.345       .  A
C240        C241   1.405       .  A
C241        C242   1.404       .  A
C241        H250   1.082       .  S
C242        C245   1.381       .  A
N243        C244   1.357       .  A
N243        H253   1.045       .  S
C244        C245   1.395       .  A
C245        H251   1.082       .  S
N246        C247   1.358       .  A
N246        H254   1.042       .  S
C247        C248   1.400       .  A
C248        H252   1.082       .  S
C255        N261   1.346       .  A
C255        C260   1.385       .  A
C255        C256   1.403       .  A
C256        C257   1.404       .  A
C256        H267   1.082       .  S
C257        C266   1.375       .  A
C257        C258   1.384       .  A
C258        N264   1.349       .  A
C258        C259   1.406       .  A
C259        C260   1.407       .  A
C259        H268   1.082       .  S
C260        C263   1.380       .  A
N261        C262   1.356       .  A
N261        H271   1.045       .  S
C262        C263   1.397       .  A
C263        H269   1.082       .  S
N264        C265   1.357       .  A
N264        H272   1.045       .  S
C265        C266   1.396       .  A
C266        H270   1.083       .  S
C273        N279   1.345       .  A
C273        C278   1.384       .  A
C273        C274   1.404       .  A
C274        C275   1.404       .  A
C274        H285   1.082       .  S
C275        C284   1.377       .  A
C275        C276   1.385       .  A
C276        N282   1.344       .  A
C276        C277   1.403       .  A
C277        C278   1.402       .  A
C277        H286   1.082       .  S
C278        C281   1.377       .  A
N279        C280   1.357       .  A
N279        H289   1.045       .  S
C280        C281   1.395       .  A
C281        H287   1.082       .  S
N282        C283   1.354       .  A
N282        H290   1.045       .  S
C283        C284   1.396       .  A
C284        H288   1.083       .  S
C291        N297   1.342       .  A
C291        C296   1.385       .  A
C291        C292   1.401       .  A
C292        C293   1.401       .  A
C292        H303   1.083       .  S
C293        C302   1.375       .  A
C293        C294   1.385       .  A
C294        N300   1.346       .  A
C294        C295   1.405       .  A
C295        C296   1.404       .  A
C295        H304   1.082       .  S
C296        C299   1.379       .  A
N297        C298   1.355       .  A
N297        H307   1.045       .  S
C298        C299   1.395       .  A
C299        H305   1.082       .  S
N300        C301   1.355       .  A
N300        H308   1.045       .  S
C301        C302   1.392       .  A
C302        H306   1.082       .  S
C309        N315   1.343       .  A
C309        C314   1.383       .  A
C309        C310   1.404       .  A
C310        C311   1.403       .  A
C310        H321   1.083       .  S
C311        C320   1.379       .  A
C311        C312   1.385       .  A
C312        N318   1.345       .  A
C312        C313   1.405       .  A
C313        C314   1.404       .  A
C313        H322   1.082       .  S
C314        C317   1.379       .  A
N315        C316   1.358       .  A
N315        H325   1.042       .  S
C316        C317   1.399       .  A
C317        H323   1.081       .  S
N318        C319   1.356       .  A
N318        H326   1.045       .  S
C319        C320   1.395       .  A
C320        H324   1.082       .  S
C327        N333   1.341       .  A
C327        C332   1.386       .  A
C327        C328   1.403       .  A
C328        C329   1.399       .  A
C328        H339   1.083       .  S
C329        C338   1.378       .  A
C329        C330   1.385       .  A
C330        N336   1.344       .  A
C330        C331   1.404       .  A
C331        C332   1.404       .  A
C331        H340   1.083       .  S
C332        C335   1.381       .  A
N333        C334   1.354       .  A
N333        H343   1.045       .  S
C334        C335   1.395       .  A
C335        H341   1.083       .  S
N336        C337   1.356       .  A
N336        H344   1.045       .  S
C337        C338   1.393       .  A
C338        H342   1.083       .  S
C345        N351   1.346       .  A
C345        C350   1.385       .  A
C345        C346   1.406       .  A
C346        C347   1.406       .  A
C346        H357   1.082       .  S
C347        C356   1.383       .  A
C347        C348   1.385       .  A
C348        N354   1.341       .  A
C348        C349   1.400       .  A
C349        C350   1.399       .  A
C349        H358   1.083       .  S
C350        C353   1.373       .  A
N351        C352   1.356       .  A
N351        H361   1.045       .  S
C352        C353   1.392       .  A
C353        H359   1.083       .  S
N354        C355   1.354       .  A
N354        H362   1.045   1_565  S
C355        C356   1.396       .  A
C356        H360   1.082       .  S
C363        N369   1.344       .  A
C363        C368   1.384       .  A
C363        C364   1.404       .  A
C364        C365   1.403       .  A
C364        H375   1.082       .  S
C365        C374   1.379       .  A
C365        C366   1.385       .  A
C366        N372   1.344       .  A
C366        C367   1.404       .  A
C367        C368   1.403       .  A
C367        H376   1.082       .  S
C368        C371   1.378       .  A
N369        C370   1.357       .  A
N369        H379   1.043       .  S
C370        C371   1.396       .  A
C371        H377   1.082       .  S
N372        C373   1.355       .  A
N372        H380   1.045       .  S
C373        C374   1.395       .  A
C374        H378   1.082       .  S
C381        N387   1.343       .  A
C381        C386   1.385       .  A
C381        C382   1.400       .  A
C382        C383   1.401       .  A
C382        H393   1.083       .  S
C383        C392   1.373       .  A
C383        C384   1.384       .  A
C384        N390   1.348       .  A
C384        C385   1.407       .  A
C385        C386   1.406       .  A
C385        H394   1.082       .  S
C386        C389   1.381   1_655  A
N387        C388   1.354       .  A
N387        H397   1.045       .  S
C388        C389   1.395   1_655  A
C389        H395   1.083       .  S
N390        C391   1.357       .  A
N390        H398   1.045       .  S
C391        C392   1.395       .  A
C392        H396   1.083       .  S
C399        N405   1.340       .  A
C399        C404   1.385       .  A
C399        C400   1.402       .  A
C400        C401   1.400       .  A
C400        H411   1.082       .  S
C401        C410   1.377       .  A
C401        C402   1.384       .  A
C402        N408   1.346       .  A
C402        C403   1.408       .  A
C403        C404   1.407       .  A
C403        H412   1.082       .  S
C404        C407   1.384       .  A
N405        C406   1.353       .  A
N405        H415   1.045       .  S
C406        C407   1.396       .  A
C407        H413   1.082       .  S
N408        C409   1.357       .  A
N408        H416   1.045       .  S
C409        C410   1.394       .  A
C410        H414   1.082       .  S
C417        N423   1.351       .  A
C417        C422   1.384       .  A
C417        C418   1.412       .  A
C418        C419   1.412       .  A
C418        H429   1.082       .  S
C419        C428   1.388   1_655  A
C419        C420   1.384       .  A
C420        N426   1.344       .  A
C420        C421   1.402       .  A
C421        C422   1.401       .  A
C421        H430   1.082       .  S
C422        C425   1.375       .  A
N423        C424   1.360       .  A
N423        H433   1.044       .  S
C424        C425   1.396       .  A
C425        H431   1.081       .  S
N426        C427   1.355   1_655  A
N426        H434   1.045       .  S
C427        C428   1.401       .  A
C428        H432   1.082       .  S
