geometry optimzed in LAMMPS
_audit_creation_date              2020-11-30 
_audit_creation_method            'lammps2cif' 
_symmetry_space_group_name_H-M    'P1' 
_symmetry_Int_Tables_number       1 
_symmetry_cell_setting            triclinic 
loop_ 
_symmetry_equiv_pos_as_xyz 
  x,y,z 
_cell_length_a                    23.39038998542865 
_cell_length_b                    23.91922476907842 
_cell_length_c                    27.471504535935 
_cell_angle_alpha                 89.83029514406321 
_cell_angle_beta                  91.842497417317 
_cell_angle_gamma                 91.6271610340734 
loop_ 
_atom_site_label 
_atom_site_type_symbol 
_atom_site_fract_x 
_atom_site_fract_y 
_atom_site_fract_z 
_atom_site_charge 
C1          C  0.81913738  0.86053521  0.87693615    -0.02680
O2          O  0.86561311  0.02593711  0.39432821    -0.75490
O3          O  0.82945848  0.96356463  0.44080613    -0.54390
C4          C  0.86709439  0.00083373  0.43466475     0.78240
O5          O  0.70641499  0.83991381  0.27377302    -0.60090
O6          O  0.74684569  0.85051921  0.20280974    -0.53120
C7          C  0.70554350  0.85960483  0.23029664     0.70260
O8          O  0.70538184  0.92688854  0.42614287    -0.74650
O9          O  0.77557674  0.91666913  0.48429528    -0.55210
C10         C  0.72667333  0.93604404  0.46926195     0.76260
O11         O  0.93659409  0.97117758  0.25311425    -0.59790
O12         O  0.88682625  0.91713591  0.19737668    -0.52910
C13         C  0.92832238  0.95240230  0.20954707     0.72850
Zr14       Zr  0.89333538  0.96151608  0.33268544     2.54710
O15         O  0.85551758  0.05196332  0.30995804    -0.80360
O16         O  0.99390829  0.98894278  0.32761990    -0.93770
Zr17       Zr  0.73885972  0.89138300  0.34842792     2.64680
O18         O  0.73061292  0.99190577  0.35659384    -0.98730
O19         O  0.63622638  0.87419525  0.34244417    -0.80790
O20         O  0.83851203  0.88316733  0.36193540    -0.84150
O21         O  0.80768119  0.92805042  0.29237396    -2.18860
O22         O  0.94043525  0.84687290  0.26428904    -0.67540
O23         O  0.90508758  0.82570003  0.19178817    -0.52100
C24         C  0.94342621  0.81920855  0.22451333     0.71230
O25         O  0.83969309  0.75212275  0.43947213    -0.60440
O26         O  0.86275451  0.79782643  0.50608557    -0.52420
C27         C  0.86226145  0.75192458  0.48284866     0.73040
O28         O  0.75651896  0.70591357  0.27918050    -0.71840
O29         O  0.78769884  0.75744017  0.21470737    -0.50520
C30         C  0.75897550  0.71523686  0.23276557     0.74420
O31         O  0.99178100  0.77884631  0.42885207    -0.67170
O32         O  0.94635325  0.82480758  0.48782140    -0.54370
C33         C  0.98291302  0.78712815  0.47425339     0.72800
Zr34       Zr  0.95340793  0.81510785  0.35027898     2.77540
O35         O  0.96149189  0.71459567  0.36425836    -0.97920
O36         O  0.05655323  0.83183911  0.35173457    -0.78740
Zr37       Zr  0.79816162  0.74624660  0.35646803     2.70070
O38         O  0.83946433  0.65450716  0.35103204    -0.79990
O39         O  0.70381347  0.71339218  0.38114637    -0.99070
Zr40       Zr  0.85524264  0.86653025  0.44474840     2.21500
Zr41       Zr  0.83467635  0.84519617  0.24829927     2.11130
O42         O  0.87226034  0.77511230  0.30419179    -2.47760
O43         O  0.87720870  0.78915629  0.39724816    -0.79780
O44         O  0.91787439  0.88150516  0.29372498    -0.71980
O45         O  0.76918595  0.82318370  0.40667972    -2.32930
O46         O  0.93250056  0.89876954  0.39490343    -2.29140
O47         O  0.76255704  0.81398484  0.30316812    -0.73730
H48         H  0.79616530  0.95912561  0.27334312     0.78260
H49         H  0.74017378  0.81285561  0.42957596     0.79350
H50         H  0.88067695  0.74137476  0.28787173     0.81580
H51         H  0.96705597  0.91147557  0.41183954     0.79180
H52         H  0.62947020  0.84010193  0.36219478     0.42220
H53         H  0.67842849  0.74489440  0.37362300     0.41190
H54         H  0.84470418  0.64836766  0.31594007     0.40870
H55         H  0.94047988  0.69323997  0.33859681     0.38800
H56         H  0.06273714  0.86641021  0.37116588     0.41930
H57         H  0.01407535  0.97117900  0.35547165     0.36720
H58         H  0.88903500  0.07385872  0.29844433     0.42830
H59         H  0.76302579  0.00915731  0.33955908     0.39250
H60         H  0.00198886  0.70382416  0.36449131     0.44170
H61         H  0.99575666  0.02968844  0.33366067     0.42890
H62         H  0.69547576  0.00202721  0.33824600     0.43030
H63         H  0.69179175  0.68427654  0.35708495     0.43380
O64         O  0.90032637  0.39263111  0.94872418    -0.75490
O65         O  0.88208862  0.36515357  0.02379358    -0.54390
C66         C  0.90775145  0.39796545  0.99540220     0.78240
O67         O  0.77567990  0.35288067  0.77657404    -0.60090
O68         O  0.80793282  0.35990006  0.70222495    -0.53120
C69         C  0.77576309  0.37743585  0.73459674     0.70260
O70         O  0.73510536  0.41235185  0.94080492    -0.74650
O71         O  0.78594757  0.36742476  0.00053845    -0.55210
C72         C  0.74718682  0.40341115  0.98608545     0.76260
O73         O  0.96685873  0.45773379  0.78686873    -0.59790
O74         O  0.92983175  0.40408797  0.72438786    -0.52910
C75         C  0.96074759  0.44734741  0.74037413     0.72850
Zr76       Zr  0.94090483  0.41295412  0.86727612     2.54710
O77         O  0.93971245  0.51283522  0.88000841    -0.80360
O78         O  0.04338011  0.42327537  0.88553008    -0.93770
Zr79       Zr  0.77317219  0.38868377  0.86197016     2.64680
O80         O  0.78406892  0.49019634  0.86689596    -0.98730
O81         O  0.67103182  0.40419175  0.85376837    -0.80790
O82         O  0.85632355  0.39562545  0.91184798    -0.84150
O83         O  0.85791748  0.40538663  0.81546264    -2.18860
O84         O  0.97221459  0.20628821  0.78387361    -0.67540
O85         O  0.93238708  0.25933124  0.72705161    -0.52100
C86         C  0.93784270  0.21160494  0.74710317     0.71230
O87         O  0.85418242  0.17321620  0.88839382    -0.60440
O88         O  0.86053063  0.20795686  0.96354226    -0.52420
C89         C  0.86696178  0.16801332  0.93297967     0.73040
O90         O  0.74204773  0.22590267  0.77570142    -0.71840
O91         O  0.79589069  0.26577546  0.71742129    -0.50520
C92         C  0.75290852  0.23468108  0.73109383     0.74420
O93         O  0.99418326  0.22435099  0.93883994    -0.67170
O94         O  0.93949512  0.25342451  0.99971119    -0.54370
C95         C  0.98321286  0.22660847  0.98403036     0.72800
Zr96       Zr  0.96083471  0.25734524  0.85971779     2.77540
O97         O  0.99686038  0.16662138  0.88616410    -0.97920
O98         O  0.05169612  0.30149079  0.83852694    -0.78740
Zr99       Zr  0.78576081  0.23515229  0.85556279     2.70070
O100        O  0.76141873  0.13696656  0.84353709    -0.79990
O101        O  0.69207035  0.22646966  0.89169430    -0.99070
Zr102      Zr  0.86066212  0.30855649  0.95750056     2.21500
Zr103      Zr  0.87001656  0.32503250  0.76273490     2.11130
O104        O  0.87122835  0.24673756  0.81712968    -2.47760
O105        O  0.86759017  0.29051692  0.87618576    -0.79780
O106        O  0.95769008  0.33868903  0.81124325    -0.71980
O107        O  0.77174447  0.30501733  0.91339145    -2.32930
O108        O  0.95181967  0.33025941  0.91695202    -2.29140
O109        O  0.78036850  0.31340440  0.80732705    -0.73730
H110        H  0.85579489  0.43949769  0.79706755     0.78260
H111        H  0.73914360  0.30088787  0.93389635     0.79350
H112        H  0.86470984  0.21051804  0.80508202     0.81580
H113        H  0.98492030  0.33278096  0.93886124     0.79180
H114        H  0.65285960  0.36826837  0.86380697     0.42220
H115        H  0.66858421  0.25415615  0.87389212     0.41190
H116        H  0.77800876  0.12742223  0.81205857     0.40870
H117        H  0.96470854  0.14014952  0.89209196     0.38800
H118        H  0.07853472  0.29093562  0.86539065     0.41930
H119        H  0.05107393  0.40185868  0.91572118     0.36720
H120        H  0.91135844  0.52646906  0.85556620     0.42830
H121        H  0.80667600  0.50342364  0.83930379     0.39250
H122        H  0.01686880  0.15128103  0.85818014     0.44170
H123        H  0.05000411  0.46301771  0.89442337     0.42890
H124        H  0.74544112  0.50546138  0.86234077     0.43030
H125        H  0.67599170  0.18984849  0.88041398     0.43380
O126        O  0.48988134  0.72237567  0.90869287    -0.75490
O127        O  0.46344864  0.76582692  0.97837159    -0.54390
C128        C  0.48904932  0.72648733  0.95580823     0.78240
O129        O  0.50474394  0.94655781  0.75583800    -0.60090
O130        O  0.42310803  0.92859851  0.71025036    -0.53120
C131        C  0.47472126  0.94843069  0.71595802     0.70260
O132        O  0.55741645  0.89265410  0.90330960    -0.74650
O133        O  0.52193783  0.85675131  0.96895390    -0.55210
C134        C  0.54652136  0.89768599  0.94844224     0.76260
O135        O  0.39855587  0.79661923  0.75698561    -0.59790
O136        O  0.36552565  0.83131094  0.68727195    -0.52910
C137        C  0.39405587  0.79538846  0.71001455     0.72850
Zr138      Zr  0.44617917  0.76723766  0.83436245     2.54710
O139        O  0.54181522  0.75559033  0.80592117    -0.80360
O140        O  0.42901369  0.66853007  0.81627923    -0.93770
Zr141      Zr  0.48909578  0.92735460  0.84100993     2.64680
O142        O  0.58934964  0.95159027  0.82737761    -0.98730
O143        O  0.47825398  0.02720372  0.84853605    -0.80790
O144        O  0.47856514  0.84226254  0.88437280    -0.84150
O145        O  0.45281851  0.85339230  0.79069499    -2.18860
O146        O  0.24795027  0.75593802  0.79370433    -0.67540
O147        O  0.27815161  0.80630969  0.72923686    -0.52100
C148        C  0.24796450  0.76523686  0.74758176     0.71230
O149        O  0.29587841  0.97170326  0.95037295    -0.60440
O150        O  0.35338593  0.92329938  0.00260924    -0.52420
C151        C  0.30888046  0.95615761  0.99335205     0.73040
O152        O  0.34424116  0.96827903  0.78628993    -0.71840
O153        O  0.29614867  0.94020261  0.72218117    -0.50520
C154        C  0.30142943  0.97298145  0.75738465     0.74420
O155        O  0.34072869  0.80329772  0.94691008    -0.67170
O156        O  0.36950068  0.81811764  0.02132853    -0.54370
C157        C  0.32956235  0.80325679  0.99166551     0.72800
Zr158      Zr  0.29189711  0.79769665  0.86781886     2.77540
O159        O  0.19615405  0.82803816  0.88460508    -0.97920
O160        O  0.27185823  0.69754251  0.87452369    -0.78740
Zr161      Zr  0.33622723  0.96032516  0.87342797     2.70070
O162        O  0.24407603  0.00191744  0.88230613    -0.79990
O163        O  0.37005423  0.05634815  0.88823063    -0.99070
Zr164      Zr  0.41897399  0.85485322  0.95285296     2.21500
Zr165      Zr  0.35545532  0.87527391  0.76039429     2.11130
O166        O  0.29348790  0.88515658  0.82679768    -2.47760
O167        O  0.32777029  0.87439371  0.91518728    -0.79780
O168        O  0.35329737  0.78693253  0.80309611    -0.71980
O169        O  0.42719442  0.94147967  0.90770520    -2.32930
O170        O  0.38427758  0.77463730  0.90049526    -2.29140
O171        O  0.39767333  0.95096545  0.80854246    -0.73730
H172        H  0.48067445  0.85113729  0.76601613     0.78260
H173        H  0.43647793  0.97440417  0.92600874     0.79350
H174        H  0.25512460  0.89261456  0.81710390     0.81580
H175        H  0.38477947  0.73648648  0.91339641     0.79180
H176        H  0.48337347  0.04202778  0.81522117     0.42220
H177        H  0.37494666  0.07313293  0.85564355     0.41190
H178        H  0.21693975  0.96981526  0.88645089     0.40870
H179        H  0.20111954  0.86778414  0.89415174     0.38800
H180        H  0.30292687  0.67994146  0.85695462     0.41930
H181        H  0.40309020  0.65502320  0.84182624     0.36720
H182        H  0.55749883  0.79443343  0.80449524     0.42830
H183        H  0.60153419  0.92460670  0.80275424     0.39250
H184        H  0.17587872  0.82874874  0.85244542     0.44170
H185        H  0.46587403  0.65089964  0.82456905     0.42890
H186        H  0.58934065  0.98820378  0.81045549     0.43030
H187        H  0.33690804  0.07535073  0.90148997     0.43380
C188        C  0.32566461  0.38090851  0.85291422    -0.02680
C189        C  0.37893578  0.89557823  0.37379244    -0.02680
C190        C  0.89300912  0.37432595  0.36825926    -0.02680
O191        O  0.90686890  0.08059634  0.63031294    -0.75490
O192        O  0.95244321  0.08470475  0.70341551    -0.54390
C193        C  0.90708577  0.07275798  0.67613654     0.78240
O194        O  0.08535149  0.93964340  0.56025925    -0.60090
O195        O  0.12364710  0.99676290  0.50830632    -0.53120
C196        C  0.08522732  0.96088461  0.51754567     0.70260
O197        O  0.99588931  0.96680153  0.70437779    -0.74650
O198        O  0.00904061  0.03568337  0.76108775    -0.55210
C199        C  0.98730836  0.98732138  0.74717351     0.76260
O200        O  0.99678476  0.20193922  0.52712622    -0.59790
O201        O  0.04338997  0.14904318  0.47454116    -0.52910
C202        C  0.01286231  0.19234579  0.48433204     0.72850
Zr203      Zr  0.97715654  0.13870421  0.59237051     2.54710
O204        O  0.90440759  0.11274959  0.53031235    -0.80360
O205        O  0.92415548  0.22001360  0.61512333    -0.93770
Zr206      Zr  0.04099523  0.99081207  0.62529243     2.64680
O207        O  0.94044564  0.96708694  0.61616505    -0.98730
O208        O  0.05750899  0.89342319  0.64562686    -0.80790
O209        O  0.00632859  0.07475974  0.64951892    -0.84150
O210        O  0.01774862  0.05808762  0.55875745    -2.18860
O211        O  0.10996775  0.22986623  0.54152400    -0.67540
O212        O  0.13125021  0.17342758  0.48347595    -0.52100
C213        C  0.14627892  0.21243232  0.51243299     0.71230
O214        O  0.15042845  0.09254739  0.72932981    -0.60440
O215        O  0.09706598  0.11718060  0.79086062    -0.52420
C216        C  0.14305754  0.09771726  0.77617191     0.73040
O217        O  0.24316990  0.02418474  0.57160889    -0.71840
O218        O  0.19375482  0.04664722  0.50186494    -0.50520
C219        C  0.23586914  0.02206122  0.52350539     0.74420
O220        O  0.13307851  0.26199286  0.70133701    -0.67170
O221        O  0.10343590  0.20174146  0.75913554    -0.54370
C222        C  0.13230778  0.24722131  0.74586090     0.72800
Zr223      Zr  0.12267633  0.20956314  0.62755744     2.77540
O224        O  0.21477764  0.23107877  0.66952429    -0.97920
O225        O  0.07929739  0.29691834  0.60231848    -0.78740
Zr226      Zr  0.19140325  0.06033025  0.64939190     2.70070
O227        O  0.28873688  0.08242160  0.67852721    -0.79990
O228        O  0.20698530  0.96269736  0.66733967    -0.99070
Zr229      Zr  0.05442702  0.11467029  0.71454125     2.21500
Zr230      Zr  0.10894654  0.09207895  0.53131833     2.11130
O231        O  0.17354997  0.13351961  0.59299754    -2.47760
O232        O  0.14603818  0.13908724  0.68305151    -0.79780
O233        O  0.07504467  0.12615585  0.60438814    -0.71980
O234        O  0.10351437  0.03190817  0.68610630    -2.32930
O235        O  0.02989655  0.18709949  0.65786781    -2.29140
O236        O  0.12832935  0.02165750  0.59058590    -0.73730
H237        H  0.99068576  0.04494135  0.53432863     0.78260
H238        H  0.10823298  0.00442482  0.71151276     0.79350
H239        H  0.21311730  0.14207575  0.58923192     0.81580
H240        H  0.01190643  0.21857210  0.67217823     0.79180
H241        H  0.07818580  0.89444776  0.67762100     0.42220
H242        H  0.17152877  0.94310420  0.65523534     0.41190
H243        H  0.28630443  0.11925032  0.69455251     0.40870
H244        H  0.24334464  0.20499383  0.65788783     0.38800
H245        H  0.04676311  0.30087227  0.62407089     0.41930
H246        H  0.89027770  0.21916711  0.59254022     0.36720
H247        H  0.92415055  0.11324254  0.49900580     0.42830
H248        H  0.92799226  0.98872006  0.58742303     0.39250
H249        H  0.22867888  0.26960760  0.66285840     0.44170
H250        H  0.94743711  0.25261847  0.60418420     0.42890
H251        H  0.93848811  0.92706594  0.60755166     0.43030
H252        H  0.23594126  0.95176022  0.64392611     0.43380
O253        O  0.96010584  0.70493451  0.04866698    -0.75490
O254        O  0.01310113  0.68695562  0.98269267    -0.54390
C255        C  0.96878210  0.70807808  0.00211470     0.78240
O256        O  0.20279596  0.77826332  0.19671202    -0.60090
O257        O  0.19152821  0.71080337  0.25442509    -0.53120
C258        C  0.21207348  0.75929167  0.24020186     0.70260
O259        O  0.09317311  0.78112424  0.05305402    -0.74650
O260        O  0.07742409  0.73964674  0.98317369    -0.55210
C261        C  0.10113544  0.77939571  0.00707108     0.76260
O262        O  0.04297045  0.62770498  0.20364354    -0.59790
O263        O  0.08659260  0.62311010  0.27538599    -0.52910
C264        C  0.04296770  0.63669446  0.25012940     0.72850
Zr265      Zr  0.01280210  0.67407700  0.12569650     2.54710
O266        O  0.00151089  0.77416346  0.13550507    -0.80360
O267        O  0.91352956  0.64605604  0.13863807    -0.93770
Zr268      Zr  0.16282486  0.74830058  0.11622852     2.64680
O269        O  0.14999311  0.84853239  0.12549732    -0.98730
O270        O  0.26419339  0.75879453  0.10033189    -0.80790
O271        O  0.08204381  0.70947891  0.07549400    -0.84150
O272        O  0.09719439  0.70746026  0.17150588    -2.18860
O273        O  0.04528824  0.50216229  0.18976515    -0.67540
O274        O  0.09756064  0.54487488  0.25054839    -0.52100
C275        C  0.05606277  0.51055836  0.23561266     0.71230
O276        O  0.24005486  0.55852615  0.01325290    -0.60440
O277        O  0.17696853  0.59832499  0.95959763    -0.52420
C278        C  0.21626643  0.56171121  0.97060303     0.73040
O279        O  0.29283803  0.64032794  0.16206266    -0.71840
O280        O  0.24701217  0.65281958  0.22853242    -0.50520
C281        C  0.28172829  0.62457570  0.20517233     0.74420
O282        O  0.10661410  0.55063610  0.02487459    -0.67170
O283        O  0.08002028  0.58127387  0.95275774    -0.54370
C284        C  0.07681076  0.54416430  0.98530944     0.72800
Zr285      Zr  0.08309339  0.52956057  0.10968230     2.77540
O286        O  0.11521971  0.43391125  0.10585657    -0.97920
O287        O  0.98797283  0.48780871  0.09936171    -0.78740
Zr288      Zr  0.23428639  0.60230168  0.09285172     2.70070
O289        O  0.26531940  0.50585024  0.09468574    -0.79990
O290        O  0.32135194  0.63789177  0.05509546    -0.99070
Zr291      Zr  0.10463075  0.64810052  0.01272341     2.21500
Zr292      Zr  0.14635753  0.62868833  0.20890173     2.11130
O293        O  0.17138902  0.55733892  0.15116566    -2.47760
O294        O  0.14717617  0.57309072  0.05673613    -0.79780
O295        O  0.06140227  0.59999406  0.16304164    -0.71980
O296        O  0.19083299  0.68196506  0.05486824    -2.32930
O297        O  0.03579329  0.60470859  0.06791771    -2.29140
O298        O  0.20239107  0.66789970  0.14844692    -0.73730
H299        H  0.08950201  0.73555715  0.19485554     0.78260
H300        H  0.21941420  0.69592254  0.03390760     0.79350
H301        H  0.18717069  0.52388839  0.16442789     0.81580
H302        H  0.00026763  0.59227933  0.05262948     0.79180
H303        H  0.28285018  0.72457192  0.11184820     0.42220
H304        H  0.34682506  0.65283521  0.08171735     0.41190
H305        H  0.22989864  0.48273050  0.08993488     0.40870
H306        H  0.15187388  0.43419847  0.12486560     0.38800
H307        H  0.96242023  0.51497892  0.11400278     0.41930
H308        H  0.90768248  0.61093613  0.11992565     0.36720
H309        H  0.99258329  0.78898700  0.10255394     0.42830
H310        H  0.11372429  0.85118131  0.14286585     0.39250
H311        H  0.08844762  0.41290289  0.12682830     0.44170
H312        H  0.89057016  0.67373627  0.12033950     0.42890
H313        H  0.17984466  0.86224257  0.14920272     0.43030
H314        H  0.34064583  0.60429983  0.04359574     0.43380
O315        O  0.75338713  0.21227701  0.03784815    -0.75490
O316        O  0.69462464  0.17690027  0.97979826    -0.54390
C317        C  0.74143941  0.17509530  0.00593284     0.78240
O318        O  0.61957793  0.08094644  0.19837024    -0.60090
O319        O  0.61812950  0.10435476  0.27366928    -0.53120
C320        C  0.62630895  0.06701874  0.24264847     0.70260
O321        O  0.67652684  0.01212430  0.04123895    -0.74650
O322        O  0.64511010  0.06018778  0.97460399    -0.55210
C323        C  0.67422164  0.01957027  0.99473508     0.76260
O324        O  0.74552782  0.24311945  0.18991421    -0.59790
O325        O  0.68818816  0.21276204  0.25027870    -0.52910
C326        C  0.73418438  0.23832340  0.23528744     0.72850
Zr327      Zr  0.70604902  0.20439495  0.11297717     2.54710
O328        O  0.78597416  0.14697420  0.13776826    -0.80360
O329        O  0.71877260  0.30554128  0.12080082    -0.93770
Zr330      Zr  0.64666018  0.05273074  0.11857335     2.64680
O331        O  0.74659082  0.02762815  0.12560172    -0.98730
O332        O  0.61820033  0.95560333  0.13231907    -0.80790
O333        O  0.67595304  0.12483975  0.06718111    -0.84150
O334        O  0.67981420  0.13218515  0.16778475    -2.18860
O335        O  0.60047543  0.32487948  0.14642961    -0.67540
O336        O  0.63467492  0.26590237  0.19714714    -0.52100
C337        C  0.59900944  0.30257061  0.18770476     0.71230
O338        O  0.43484219  0.10844653  0.03951997    -0.60440
O339        O  0.49744159  0.14948144  0.99342322    -0.52420
C340        C  0.46468179  0.10765121  0.00138578     0.73040
O341        O  0.46696237  0.07298317  0.19958314    -0.71840
O342        O  0.52271874  0.11832242  0.25715058    -0.50520
C343        C  0.48320206  0.08065188  0.24470040     0.74420
O344        O  0.51746482  0.27857228  0.01102150    -0.67170
O345        O  0.54277135  0.21488010  0.95549308    -0.54370
C346        C  0.51329276  0.25841490  0.96788911     0.72800
Zr347      Zr  0.55310698  0.25858522  0.09260086     2.77540
O348        O  0.45152688  0.26833047  0.07522179    -0.97360
O349        O  0.57752595  0.35763774  0.08797476    -0.78740
Zr350      Zr  0.49051507  0.10806311  0.11639470     2.70070
O351        O  0.39274666  0.13625259  0.12861842    -0.79990
O352        O  0.47279012  0.00728425  0.11682748    -0.99070
Zr353      Zr  0.60094372  0.14720435  0.00973511     2.21500
Zr354      Zr  0.59957609  0.17049677  0.20898421     2.11130
O355        O  0.51883977  0.19510833  0.15615061    -2.47760
O356        O  0.52507704  0.17494835  0.05850950    -0.79780
O357        O  0.60910589  0.18529550  0.12523816    -0.71980
O358        O  0.56827420  0.07519078  0.06641860    -2.32930
O359        O  0.63515405  0.23138003  0.05157018    -2.29140
O360        O  0.57055679  0.08661550  0.16431788    -0.73730
H361        H  0.71124052  0.12536717  0.19030204     0.78260
H362        H  0.55875556  0.04067749  0.05005858     0.79350
H363        H  0.48480703  0.20472479  0.17170461     0.81580
H364        H  0.64861371  0.26018024  0.02963999     0.79180
H365        H  0.62357091  0.93681543  0.10080381     0.42220
H366        H  0.50526022  0.99191713  0.13605652     0.41190
H367        H  0.39250752  0.14946807  0.16272665     0.40870
H368        H  0.43132954  0.24832052  0.10132763     0.38800
H369        H  0.59019396  0.36182921  0.05414382     0.41930
H370        H  0.69776949  0.32123516  0.09229391     0.36720
H371        H  0.80945278  0.16892145  0.16186237     0.42830
H372        H  0.76346864  0.04383109  0.15573339     0.39250
H373        H  0.44416446  0.30858839  0.07815648     0.44170
H374        H  0.75956117  0.31312479  0.11385830     0.42890
H375        H  0.74658642  0.98666144  0.12978500     0.43030
H376        H  0.43920288  0.00048987  0.13722518     0.43380
C377        C  0.60489958  0.57016941  0.09681641    -0.02680
C378        C  0.10116331  0.61457331  0.61134487    -0.02680
O379        O  0.22574305  0.45873235  0.44429047    -0.75490
O380        O  0.29374615  0.43469390  0.50115342    -0.54390
C381        C  0.24751068  0.46151723  0.48817165     0.78240
O382        O  0.23259187  0.21239864  0.30657230    -0.60090
O383        O  0.25735536  0.26497997  0.24056001    -0.53120
C384        C  0.23242496  0.22204524  0.25976715     0.70260
O385        O  0.29756832  0.25245235  0.47001585    -0.74650
O386        O  0.34748653  0.31141928  0.52070997    -0.55210
C387        C  0.32348459  0.26464874  0.51136114     0.76260
O388        O  0.24066882  0.38299088  0.27736710    -0.59790
O389        O  0.26042508  0.36215125  0.20279148    -0.52910
C390        C  0.24408783  0.39745844  0.23269840     0.72850
Zr391      Zr  0.24511944  0.42011031  0.36301405     2.54710
O392        O  0.14174385  0.40466977  0.36936408    -0.80360
O393        O  0.23063200  0.52015101  0.35130779    -0.93770
Zr394      Zr  0.26684346  0.26247301  0.38347626     2.64680
O395        O  0.16715574  0.26260482  0.40648284    -0.98730
O396        O  0.26174919  0.16189353  0.39686458    -0.80790
O397        O  0.26478820  0.35057340  0.42328164    -0.84150
O398        O  0.24679672  0.33127412  0.32516903    -2.18860
O399        O  0.42457213  0.48002525  0.26363321    -0.67540
O400        O  0.40288631  0.40236259  0.21963629    -0.52100
C401        C  0.43090666  0.45100066  0.22587724     0.71230
O402        O  0.46811520  0.25583989  0.43704043    -0.60440
O403        O  0.43301732  0.30710411  0.49798827    -0.52420
C404        C  0.46546238  0.26809697  0.48172338     0.73040
O405        O  0.38314783  0.21769441  0.29718581    -0.71840
O406        O  0.34199065  0.24690261  0.23151646    -0.50520
C407        C  0.38635439  0.22999153  0.25223716     0.74420
O408        O  0.42536266  0.49066924  0.41843326    -0.67170
O409        O  0.43687265  0.43407784  0.48067776    -0.54370
C410        C  0.45759464  0.46721917  0.44926454     0.72800
Zr411      Zr  0.41050058  0.44400306  0.34237304     2.77540
O412        O  0.51426169  0.44822427  0.33827235    -0.97920
O413        O  0.41222498  0.54512960  0.33210470    -0.78740
Zr414      Zr  0.43089411  0.27904839  0.35848859     2.70070
O415        O  0.52680868  0.31153637  0.34038585    -0.79990
O416        O  0.46234448  0.18223216  0.37174153    -0.99070
Zr417      Zr  0.36021397  0.37054806  0.45662842     2.21500
Zr418      Zr  0.32599995  0.33790115  0.26578059     2.11130
O419        O  0.41919074  0.35432660  0.30266348    -2.47760
O420        O  0.43025726  0.36894721  0.39596585    -0.79780
O421        O  0.31876924  0.42808160  0.30505192    -0.71980
O422        O  0.36022135  0.28108576  0.41514210    -2.32930
O423        O  0.33579615  0.44232649  0.39956372    -2.29140
O424        O  0.33866871  0.26777432  0.32617413    -0.73730
H425        H  0.20894372  0.31465138  0.31644265     0.78260
H426        H  0.37324560  0.24798492  0.43159158     0.79350
H427        H  0.45098616  0.35493136  0.28121359     0.81580
H428        H  0.33031433  0.47765209  0.41546426     0.79180
H429        H  0.30222101  0.15078084  0.39873728     0.42220
H430        H  0.44253251  0.16805813  0.40082613     0.41190
H431        H  0.55198671  0.28921806  0.36195069     0.40870
H432        H  0.52454520  0.41375667  0.32143177     0.38800
H433        H  0.37143311  0.55518479  0.33163959     0.41930
H434        H  0.26517487  0.53882308  0.36622597     0.36720
H435        H  0.13580590  0.39741949  0.40436592     0.42830
H436        H  0.14924288  0.29159826  0.38579415     0.39250
H437        H  0.52309376  0.47914327  0.31545986     0.44170
H438        H  0.19937745  0.52948463  0.37305018     0.42890
H439        H  0.15060326  0.22687498  0.39357123     0.43030
H440        H  0.44525504  0.15806035  0.34566068     0.43380
O441        O  0.71666604  0.59712687  0.70472472    -0.75490
O442        O  0.66214203  0.59372891  0.76842619    -0.54390
C443        C  0.70817894  0.58112189  0.74898074     0.78240
O444        O  0.69543435  0.72329500  0.53160746    -0.60090
O445        O  0.68812805  0.66451806  0.47035110    -0.53120
C446        C  0.71892221  0.69092794  0.50149142     0.70260
O447        O  0.69550193  0.71930321  0.69785412    -0.74650
O448        O  0.63547688  0.67595064  0.75059704    -0.55210
C449        C  0.67822281  0.71036355  0.74123371     0.76260
O450        O  0.75391517  0.51203960  0.54795658    -0.59790
O451        O  0.70973332  0.54838660  0.48065876    -0.52910
C452        C  0.74790663  0.51621189  0.50103392     0.72850
Zr453      Zr  0.71188677  0.54522715  0.62519588     2.54710
O454        O  0.81415305  0.55909326  0.64144946    -0.80360
O455        O  0.71774074  0.44340227  0.62334960    -0.93770
Zr456      Zr  0.66326453  0.70024739  0.61389100     2.64680
O457        O  0.73797418  0.77371276  0.62556040    -0.98730
O458        O  0.61415853  0.78853879  0.61532029    -0.80790
O459        O  0.68267482  0.62355190  0.66586827    -0.84150
O460        O  0.69552509  0.61979006  0.57261237    -2.18860
O461        O  0.59804121  0.43099247  0.53312888    -0.67540
O462        O  0.63426930  0.51089581  0.53353649    -0.52100
C463        C  0.62498568  0.46787436  0.50932525     0.71230
O464        O  0.47936254  0.58000538  0.66209197    -0.60440
O465        O  0.50470901  0.58659360  0.73951615    -0.52420
C466        C  0.46937991  0.59772820  0.70528651     0.73040
O467        O  0.48020548  0.68152379  0.51073947    -0.71840
O468        O  0.55654793  0.67317173  0.46323120    -0.50520
C469        C  0.50805899  0.69761487  0.47340404     0.74420
O470        O  0.50563405  0.45860505  0.67321070    -0.67170
O471        O  0.54273353  0.50924159  0.73759968    -0.54370
C472        C  0.50708424  0.47154941  0.71894503     0.72800
Zr473      Zr  0.55988656  0.48437706  0.60010845     2.77540
O474        O  0.46019766  0.45647584  0.58521734    -0.97920
O475        O  0.60293888  0.39379922  0.61246029    -0.78740
Zr476      Zr  0.50549229  0.63513772  0.58766445     2.70070
O477        O  0.40235407  0.62830383  0.57342147    -0.79990
O478        O  0.49081164  0.72861585  0.61231619    -0.99070
Zr479      Zr  0.59535568  0.59201351  0.70278623     2.21500
Zr480      Zr  0.62466291  0.60213681  0.50919733     2.11130
O481        O  0.53733868  0.55866250  0.53864142    -2.47760
O482        O  0.52909201  0.56173836  0.63964716    -0.79780
O483        O  0.62130774  0.56497330  0.58982682    -0.71980
O484        O  0.57514617  0.66836410  0.64795118    -2.32930
O485        O  0.63003446  0.50898627  0.66350716    -2.29140
O486        O  0.59015276  0.67640245  0.55451372    -0.73730
H487        H  0.73351233  0.61600126  0.56313992     0.78260
H488        H  0.56329231  0.69890840  0.66663412     0.79350
H489        H  0.50910436  0.54794422  0.51383862     0.81580
H490        H  0.63602275  0.47922040  0.68634102     0.79180
H491        H  0.63267516  0.80972964  0.64273057     0.42220
H492        H  0.51948350  0.75134463  0.59509559     0.41190
H493        H  0.39406466  0.58784462  0.56858267     0.40870
H494        H  0.44531765  0.48339853  0.56088725     0.38800
H495        H  0.58659190  0.37929789  0.64297227     0.41930
H496        H  0.69707018  0.42660498  0.65065093     0.36720
H497        H  0.82039017  0.60020577  0.64099626     0.42830
H498        H  0.77136589  0.75730331  0.64271194     0.39250
H499        H  0.46151490  0.42011210  0.56828973     0.44170
H500        H  0.75853965  0.43573990  0.63028227     0.42890
H501        H  0.75136329  0.78487202  0.59303952     0.43030
H502        H  0.45300598  0.73734286  0.59828629     0.43380
C503        C  0.60239394  0.10112652  0.58950306    -0.02680
C504        C  0.11996976  0.06770351  0.11059048    -0.02680
C505        C  0.18990508  0.14451059  0.14058872    -0.26510
C506        C  0.14807808  0.10413584  0.15409842    -0.14580
C507        C  0.13220580  0.10596907  0.20437593     0.36040
C508        C  0.16155139  0.14251422  0.23808346    -0.25960
C509        C  0.20403141  0.18110855  0.22377382    -0.15200
C510        C  0.21755477  0.18174770  0.17370096     0.37130
N511        N  0.25980859  0.22018838  0.15538046    -0.89450
H512        H  0.20171618  0.14734306  0.10281016     0.18240
H513        H  0.14864446  0.14248101  0.27561978     0.18230
N514        N  0.08350816  0.07548737  0.22180128    -0.88480
H515        H  0.24036442  0.24467435  0.12831443     0.35610
H516        H  0.29156484  0.19722195  0.13935723     0.40710
H517        H  0.05453030  0.10407244  0.23457978     0.40330
H518        H  0.09681388  0.05160013  0.25179018     0.35220
C519        C  0.57308036  0.15807795  0.51490046    -0.26510
C520        C  0.56393123  0.14618072  0.56409551    -0.14580
C521        C  0.52536290  0.18241323  0.58859231     0.36040
C522        C  0.49427745  0.22280287  0.56185186    -0.25960
C523        C  0.50441433  0.23322727  0.51283116    -0.15200
C524        C  0.54902682  0.20326767  0.49123121     0.37130
N525        N  0.57592632  0.22050512  0.44722503    -0.89450
H526        H  0.60448017  0.13608699  0.49493780     0.18240
H527        H  0.46201634  0.24622444  0.57976147     0.18230
N528        N  0.51544085  0.18014540  0.63996559    -0.88480
H529        H  0.58761953  0.26286674  0.44932593     0.35610
H530        H  0.55027639  0.21137150  0.41653891     0.40710
H531        H  0.53834013  0.14944525  0.65776077     0.40330
H532        H  0.47219307  0.16973276  0.64442833     0.35220
C533        C  0.54782932  0.51510686  0.42774272    -0.26510
C534        C  0.51791169  0.46575750  0.43974341    -0.14580
C535        C  0.54811850  0.41501086  0.44028207     0.36040
C536        C  0.60772919  0.41720428  0.43753237    -0.25960
C537        C  0.63125744  0.46686716  0.45493003    -0.15200
C538        C  0.60749634  0.51366850  0.43056055     0.37130
N539        N  0.64199405  0.55386874  0.40500348    -0.89450
H540        H  0.52588210  0.55267990  0.41694191     0.18240
H541        H  0.63105444  0.37909454  0.44338269     0.18230
N542        N  0.52178637  0.36407494  0.45388913    -0.88480
H543        H  0.61618299  0.58408247  0.38866234     0.35610
H544        H  0.66098541  0.53271711  0.37677282     0.40710
H545        H  0.54103626  0.35174147  0.48694898     0.40330
H546        H  0.53247749  0.33545853  0.42771287     0.35220
C547        C  0.17681673  0.53474599  0.60090499    -0.26510
C548        C  0.14372022  0.57785187  0.57857053    -0.14580
C549        C  0.15493137  0.58560635  0.52777916     0.36040
C550        C  0.18835173  0.54748665  0.50168232    -0.25960
C551        C  0.21628921  0.50134391  0.52298961    -0.15200
C552        C  0.21102090  0.49654614  0.57467102     0.37130
N553        N  0.23711070  0.45243392  0.60225839    -0.89450
H554        H  0.17392214  0.52869052  0.63985306     0.18240
H555        H  0.19339614  0.55541413  0.46318990     0.18230
N556        N  0.13569697  0.63366817  0.50158733    -0.88480
H557        H  0.26816683  0.47073927  0.62585996     0.35610
H558        H  0.25782825  0.42473026  0.58017369     0.40710
H559        H  0.11122029  0.61990334  0.47117554     0.40330
H560        H  0.17148400  0.65557351  0.48871170     0.35220
C561        C  0.47514225  0.53762559  0.18531839    -0.26510
C562        C  0.47407482  0.47868792  0.19054500    -0.14580
C563        C  0.52697860  0.45555120  0.17881663     0.36040
C564        C  0.56431502  0.48276919  0.14533378    -0.25960
C565        C  0.56006519  0.54008183  0.13260905    -0.15200
C566        C  0.51678479  0.56843682  0.15866484     0.37130
N567        N  0.51247953  0.62824202  0.15948606    -0.89450
H568        H  0.44450964  0.56138725  0.20474096     0.18240
H569        H  0.60163372  0.46063730  0.13494060     0.18230
N570        N  0.55047202  0.41442502  0.21078499    -0.88480
H571        H  0.47195547  0.63848694  0.14563941     0.35610
H572        H  0.54142408  0.64760891  0.13690383     0.40710
H573        H  0.55088266  0.43084437  0.24582558     0.40330
H574        H  0.59380243  0.40989855  0.20406669     0.35220
C575        C  0.49500342  0.31324769  0.18429453    -0.26510
C576        C  0.54437565  0.29572714  0.20985870    -0.14580
C577        C  0.54035192  0.26212956  0.25138796     0.36040
C578        C  0.48773168  0.24077671  0.26303970    -0.25960
C579        C  0.43867600  0.25500562  0.23650580    -0.15200
C580        C  0.44133891  0.29309340  0.19689906     0.37130
N581        N  0.39211685  0.30554933  0.16585600    -0.89450
H582        H  0.49845920  0.33896702  0.15203446     0.18240
H583        H  0.48583140  0.21134522  0.29224027     0.18230
N584        N  0.59015206  0.24677319  0.27986937    -0.88480
H585        H  0.40250438  0.33729350  0.14128474     0.35610
H586        H  0.36025231  0.32328312  0.18562458     0.40710
H587        H  0.57989627  0.22036839  0.30891459     0.40330
H588        H  0.61015576  0.28316946  0.29383775     0.35220
C589        C  0.23704840  0.54667756  0.24752958    -0.26510
C590        C  0.27956857  0.56572738  0.21567168    -0.14580
C591        C  0.31020447  0.52763973  0.18843410     0.36040
C592        C  0.29499205  0.47148754  0.19176866    -0.25960
C593        C  0.24995810  0.45433047  0.22081282    -0.15200
C594        C  0.22036590  0.49142312  0.24788046     0.37130
N595        N  0.17023411  0.47358616  0.27245790    -0.89450
H596        H  0.21262524  0.57492354  0.26889341     0.18240
H597        H  0.31811732  0.44117260  0.17149276     0.18230
N598        N  0.35545964  0.54527855  0.15709790    -0.88480
H599        H  0.18118597  0.44987639  0.30252195     0.35610
H600        H  0.14505286  0.44806269  0.24894190     0.40710
H601        H  0.33888645  0.56769938  0.12775625     0.40330
H602        H  0.37334277  0.51055342  0.14105286     0.35220
C603        C  0.24244523  0.17243461  0.51409311    -0.26510
C604        C  0.20542463  0.21557484  0.52809762    -0.14580
C605        C  0.22457193  0.25550619  0.56368139     0.36040
C606        C  0.28122215  0.25222604  0.58165846    -0.25960
C607        C  0.31774193  0.22519527  0.55144309    -0.15200
C608        C  0.29870954  0.17305336  0.53383380     0.37130
N609        N  0.33987257  0.13448170  0.51786932    -0.89450
H610        H  0.22841870  0.14019941  0.48879784     0.18240
H611        H  0.29894777  0.28483707  0.60550146     0.18230
N612        N  0.19071073  0.30247089  0.57556342    -0.88480
H613        H  0.32335410  0.11182063  0.48786639     0.35610
H614        H  0.34644648  0.10609708  0.54632114     0.40710
H615        H  0.18353219  0.32519452  0.54347168     0.40330
H616        H  0.21343107  0.32964576  0.59932256     0.35220
C617        C  0.86893956  0.30882348  0.29449501    -0.26510
C618        C  0.84785338  0.33933531  0.33430010    -0.14580
C619        C  0.78851407  0.32800743  0.34417261     0.36040
C620        C  0.75335671  0.29408295  0.31250178    -0.25960
C621        C  0.77442152  0.26844191  0.27119826    -0.15200
C622        C  0.83348325  0.27527187  0.26309905     0.37130
N623        N  0.85839664  0.24724954  0.22332755    -0.89450
H624        H  0.91430461  0.31117186  0.28764235     0.18240
H625        H  0.70860045  0.28806944  0.32051617     0.18230
N626        N  0.76303063  0.34769808  0.38729940    -0.88480
H627        H  0.89028684  0.22148446  0.23748209     0.35610
H628        H  0.87782993  0.27745412  0.20123886     0.40710
H629        H  0.74821991  0.31312992  0.40712460     0.40330
H630        H  0.72780906  0.37152225  0.37700834     0.35220
C631        C  0.96448158  0.45389551  0.25276507    -0.26510
C632        C  0.01590249  0.47904571  0.27136078    -0.14580
C633        C  0.02303524  0.47580170  0.32286962     0.36040
C634        C  0.98574190  0.44142545  0.35133432    -0.25960
C635        C  0.93444527  0.41354450  0.33329335    -0.15200
C636        C  0.92306214  0.42614380  0.28217321     0.37130
N637        N  0.86804197  0.41530574  0.25903238    -0.89450
H638        H  0.95362130  0.45895177  0.21439838     0.18240
H639        H  0.99855893  0.43922422  0.38849094     0.18230
N640        N  0.06545175  0.50937496  0.34871424    -0.88480
H641        H  0.87366906  0.39086455  0.22812316     0.35610
H642        H  0.85197050  0.45334455  0.24666270     0.40710
H643        H  0.05755588  0.55138365  0.34149943     0.40330
H644        H  0.10568662  0.50028138  0.33660331     0.35220
C645        C  0.00464408  0.29309116  0.45841531    -0.26510
C646        C  0.99417028  0.23615123  0.44732289    -0.14580
C647        C  0.95096360  0.22421325  0.41222662     0.36040
C648        C  0.91951007  0.26810745  0.39003106    -0.25960
C649        C  0.92999791  0.32719662  0.39863589    -0.15200
C650        C  0.97287321  0.33765209  0.43725285     0.37130
N651        N  0.98224451  0.39072832  0.46127698    -0.89450
H652        H  0.03496355  0.30311076  0.48801577     0.18240
H653        H  0.88383668  0.25315838  0.36784269     0.18230
N654        N  0.93610181  0.16672483  0.40144841    -0.88480
H655        H  0.97421075  0.38508357  0.49824259     0.35610
H656        H  0.95375118  0.42065453  0.44961954     0.40710
H657        H  0.97132428  0.14953185  0.38512773     0.40330
H658        H  0.90214335  0.16361962  0.37583525     0.35220
C659        C  0.85015996  0.40051377  0.45413899    -0.26510
C660        C  0.85762523  0.41350786  0.40396778    -0.14580
C661        C  0.82361787  0.45861877  0.38657372     0.36040
C662        C  0.78707728  0.48815514  0.41764327    -0.25960
C663        C  0.78563778  0.47972583  0.46849617    -0.15200
C664        C  0.81770673  0.43329643  0.48601089     0.37130
N665        N  0.81617069  0.41562671  0.53576058    -0.89450
H666        H  0.86916845  0.36355600  0.46954348     0.18240
H667        H  0.75901443  0.51816800  0.40087480     0.18230
N668        N  0.82300713  0.47341954  0.33625650    -0.88480
H669        H  0.77363951  0.40675843  0.54425775     0.35610
H670        H  0.83316604  0.44776817  0.55798055     0.40710
H671        H  0.83533841  0.51564454  0.33344904     0.40330
H672        H  0.78102415  0.46862628  0.32231982     0.35220
C673        C  0.25627565  0.78492389  0.32458322    -0.26510
C674        C  0.25312743  0.79420594  0.27406754    -0.14580
C675        C  0.29314952  0.83444592  0.25583574     0.36040
C676        C  0.33227128  0.86448798  0.28776435    -0.25960
C677        C  0.33403788  0.85850333  0.33940320    -0.15200
C678        C  0.29448914  0.81553063  0.35699175     0.37130
N679        N  0.28993787  0.80117560  0.40759675    -0.89450
H680        H  0.22768422  0.75348275  0.33977140     0.18240
H681        H  0.36321232  0.89163704  0.27065965     0.18230
N682        N  0.29591183  0.84378929  0.20418594    -0.88480
H683        H  0.24784582  0.80800395  0.41734950     0.35610
H684        H  0.31493380  0.82709979  0.43000748     0.40710
H685        H  0.31127252  0.80747682  0.18874040     0.40330
H686        H  0.32539064  0.87597573  0.19633595     0.35220
C687        C  0.37433564  0.98357720  0.31521893    -0.26510
C688        C  0.40920420  0.94607116  0.34285903    -0.14580
C689        C  0.46887890  0.96118933  0.34327265     0.36040
C690        C  0.49054421  0.00846974  0.31603495    -0.25960
C691        C  0.45623800  0.04012496  0.28317653    -0.15200
C692        C  0.39654802  0.02687710  0.28396284     0.37130
N693        N  0.35771709  0.05862229  0.25398960    -0.89450
H694        H  0.32839110  0.97690773  0.31582810     0.18240
H695        H  0.53577309  0.01901516  0.31945499     0.18230
N696        N  0.50847895  0.93001629  0.37234795    -0.88480
H697        H  0.31531665  0.04689593  0.26079589     0.35610
H698        H  0.36404204  0.04809376  0.21771446     0.40710
H699        H  0.53026289  0.95752468  0.39645681     0.40330
H700        H  0.53831288  0.91406308  0.34903952     0.35220
C701        C  0.28433182  0.93221925  0.41179355    -0.26510
C702        C  0.34453476  0.92971868  0.41506690    -0.14580
C703        C  0.36935356  0.96288102  0.45506328     0.36040
C704        C  0.33476200  0.98813407  0.49135130    -0.25960
C705        C  0.27407727  0.98763574  0.48843148    -0.15200
C706        C  0.25033543  0.95820293  0.44640450     0.37130
N707        N  0.19040456  0.95107168  0.43703980    -0.89450
H708        H  0.26122225  0.91405532  0.38084394     0.18240
H709        H  0.35625033  0.01123991  0.52073609     0.18230
N710        N  0.42944132  0.97565684  0.45886470    -0.88480
H711        H  0.17252993  0.98993726  0.43112960     0.35610
H712        H  0.17301436  0.92854080  0.46579886     0.40710
H713        H  0.44067991  0.00023347  0.42907572     0.40330
H714        H  0.45277655  0.93926422  0.45938470     0.35220
C715        C  0.42052261  0.83558234  0.44671320    -0.26510
C716        C  0.42167305  0.84801922  0.39680636    -0.14580
C717        C  0.45622889  0.80910018  0.37039493     0.36040
C718        C  0.48504359  0.76240186  0.39434220    -0.25960
C719        C  0.48080899  0.74973364  0.44487537    -0.15200
C720        C  0.44692528  0.78963992  0.46952966     0.37130
N721        N  0.43849523  0.78714200  0.52014877    -0.89450
H722        H  0.39536824  0.86043101  0.47015041     0.18240
H723        H  0.50993396  0.73512173  0.37246362     0.18230
N724        N  0.46389077  0.81497470  0.31902363    -0.88480
H725        H  0.47897883  0.79045254  0.53660050     0.35610
H726        H  0.41501334  0.75063493  0.52781390     0.40710
H727        H  0.44609193  0.85141811  0.30551481     0.40330
H728        H  0.44236448  0.78126417  0.30175195     0.35220
C729        C  0.20020969  0.26444481  0.82305887    -0.26510
C730        C  0.17310057  0.28441246  0.77977305    -0.14580
C731        C  0.19369940  0.33884615  0.76469490     0.36040
C732        C  0.24159232  0.36660590  0.78828446    -0.25960
C733        C  0.27364294  0.34381147  0.82777191    -0.15200
C734        C  0.24860472  0.29318246  0.84705924     0.37130
N735        N  0.26994360  0.27174923  0.89256995    -0.89450
H736        H  0.18355904  0.22606854  0.83875556     0.18240
H737        H  0.25435566  0.40744082  0.77471036     0.18230
N738        N  0.16557798  0.36932847  0.72628033    -0.88480
H739        H  0.28415501  0.23140866  0.88707224     0.35610
H740        H  0.23612672  0.26926516  0.91653286     0.40710
H741        H  0.12157564  0.36868559  0.73196756     0.40330
H742        H  0.17387238  0.35177429  0.69260303     0.35220
C743        C  0.26076862  0.41714041  0.92113909    -0.26510
C744        C  0.29291167  0.43015528  0.87975367    -0.14580
C745        C  0.28658724  0.48664645  0.86226214     0.36040
C746        C  0.25939029  0.52820068  0.89040930    -0.25960
C747        C  0.23443376  0.51582494  0.93529738    -0.15200
C748        C  0.23389997  0.45800690  0.94937709     0.37130
N749        N  0.20729094  0.43843635  0.99293880    -0.89450
H750        H  0.25924395  0.37426683  0.93383180     0.18240
H751        H  0.25884960  0.57088607  0.87716980     0.18230
N752        N  0.30512847  0.50242362  0.81488456    -0.88480
H753        H  0.17711496  0.40720199  0.98278579     0.35610
H754        H  0.18438816  0.46974020  0.00902616     0.40710
H755        H  0.33374909  0.53663424  0.81863223     0.40330
H756        H  0.26949772  0.51554743  0.79440929     0.35220
C757        C  0.43823875  0.33277908  0.95636306    -0.26510
C758        C  0.46649714  0.28722007  0.93567095    -0.14580
C759        C  0.44356397  0.26942794  0.88951116     0.36040
C760        C  0.39678561  0.29791182  0.86601891    -0.25960
C761        C  0.36876314  0.34440310  0.88680234    -0.15200
C762        C  0.39114882  0.36023273  0.93405616     0.37130
N763        N  0.36842976  0.40552746  0.96049938    -0.89450
H764        H  0.45271932  0.34862898  0.99164180     0.18240
H765        H  0.38261946  0.28390852  0.83005547     0.18230
N766        N  0.46655129  0.22263993  0.86528565    -0.88480
H767        H  0.40148664  0.43444331  0.96927546     0.35610
H768        H  0.35316546  0.38961722  0.99327646     0.40710
H769        H  0.46204902  0.18754537  0.88774544     0.40330
H770        H  0.51015783  0.23082398  0.86051520     0.35220
C771        C  0.37482567  0.38626368  0.76720077    -0.26510
C772        C  0.37045265  0.40635487  0.81545231    -0.14580
C773        C  0.41474314  0.44543233  0.83119262     0.36040
C774        C  0.45826127  0.46402620  0.79990167    -0.25960
C775        C  0.46177179  0.44508936  0.75179101    -0.15200
C776        C  0.41892786  0.40507168  0.73557861     0.37130
N777        N  0.42001979  0.38304869  0.68700744    -0.89450
H778        H  0.34501967  0.35401625  0.75405633     0.18240
H779        H  0.48964768  0.49455967  0.81390751     0.18230
N780        N  0.41595958  0.46755986  0.87951613    -0.88480
H781        H  0.38499157  0.35579945  0.68001442     0.35610
H782        H  0.45657461  0.35910895  0.68494472     0.40710
H783        H  0.45539460  0.45819969  0.89616241     0.40330
H784        H  0.41385052  0.51109838  0.87725369     0.35220
C785        C  0.24362257  0.75808022  0.97068457    -0.26510
C786        C  0.27174984  0.79464909  0.00312512    -0.14580
C787        C  0.24238739  0.83528649  0.02841749     0.36040
C788        C  0.18416902  0.83931414  0.01828482    -0.25960
C789        C  0.15557610  0.79800734  0.99022588    -0.15200
C790        C  0.18578829  0.75969179  0.96272087     0.37130
N791        N  0.15733234  0.71947996  0.93047727    -0.89450
H792        H  0.26753044  0.72592673  0.95391614     0.18240
H793        H  0.15959602  0.86827499  0.03867647     0.18230
N794        N  0.26725708  0.86129471  0.07173604    -0.88480
H795        H  0.18565232  0.69178278  0.91594134     0.35610
H796        H  0.13791176  0.74087831  0.90147444     0.40710
H797        H  0.24033669  0.89100127  0.08556738     0.40330
H798        H  0.30663650  0.88049923  0.06587344     0.35220
C799        C  0.16465862  0.01435674  0.80612475    -0.26510
C800        C  0.17818280  0.07120124  0.81071034    -0.14580
C801        C  0.23439990  0.09126030  0.81020679     0.36040
C802        C  0.27371502  0.05858891  0.78902071    -0.25960
C803        C  0.25664439  0.00565855  0.77216063    -0.15200
C804        C  0.20189401  0.98215475  0.78098342     0.37130
N805        N  0.18376163  0.92727333  0.76458480    -0.89450
H806        H  0.12098081  0.99888591  0.81039031     0.18240
H807        H  0.31698482  0.07491482  0.78456712     0.18230
N808        N  0.24935381  0.14721523  0.82423085    -0.88480
H809        H  0.14897302  0.93074883  0.74031383     0.35610
H810        H  0.16749217  0.90532355  0.79429250     0.40710
H811        H  0.26527901  0.16824829  0.79386619     0.40330
H812        H  0.28259756  0.14524411  0.85044034     0.35220
C813        C  0.21691443  0.72709046  0.66309425    -0.26510
C814        C  0.21222476  0.72465226  0.71406888    -0.14580
C815        C  0.17545864  0.68060509  0.73164338     0.36040
C816        C  0.14405809  0.64407868  0.69922272    -0.25960
C817        C  0.14440766  0.64952473  0.64782699    -0.15200
C818        C  0.18579525  0.68987452  0.63073803     0.37130
N819        N  0.19562328  0.69489480  0.57981127    -0.89450
H820        H  0.24536091  0.75840925  0.64763462     0.18240
H821        H  0.11927609  0.61086496  0.71566598     0.18230
N822        N  0.16817066  0.67109378  0.78258176    -0.88480
H823        H  0.23884227  0.68765670  0.57444282     0.35610
H824        H  0.18763650  0.73596744  0.56900300     0.40710
H825        H  0.15309242  0.70734360  0.79832913     0.40330
H826        H  0.20746254  0.66061910  0.79872346     0.35220
C827        C  0.20495292  0.97825571  0.01332205    -0.26510
C828        C  0.26362268  0.97817593  0.02972563    -0.14580
C829        C  0.27419329  0.00511226  0.07552410     0.36040
C830        C  0.22915419  0.03282898  0.09999672    -0.25960
C831        C  0.17043088  0.03488273  0.08244898    -0.15200
C832        C  0.15973243  0.00369116  0.03890945     0.37130
N833        N  0.10236003  0.99796262  0.01947860    -0.89450
H834        H  0.19334914  0.95752756  0.97926727     0.18240
H835        H  0.24124629  0.05155008  0.13466333     0.18230
N836        N  0.32997136  0.00586286  0.09874666    -0.88480
H837        H  0.09149383  0.95530599  0.01763836     0.35610
H838        H  0.10145238  0.01385062  0.98397335     0.40710
H839        H  0.35724902  0.98102044  0.07956765     0.40330
H840        H  0.32608852  0.98653527  0.13271992     0.35220
C841        C  0.38072669  0.71222710  0.66976896    -0.26510
C842        C  0.41947070  0.75458536  0.68474779    -0.14580
C843        C  0.47337830  0.74464124  0.70439832     0.36040
C844        C  0.48201150  0.69242787  0.72225752    -0.25960
C845        C  0.44327900  0.64889506  0.70892735    -0.15200
C846        C  0.39190374  0.65807544  0.68288208     0.37130
N847        N  0.35089621  0.61406091  0.67032871    -0.89450
H848        H  0.33923472  0.72198280  0.65387697     0.18240
H849        H  0.52274004  0.68451354  0.74043787     0.18230
N850        N  0.51610895  0.78890855  0.71045484    -0.88480
H851        H  0.31263912  0.62308775  0.68696368     0.35610
H852        H  0.36366230  0.57581082  0.68486010     0.40710
H853        H  0.50416889  0.82341841  0.68933846     0.40330
H854        H  0.55515138  0.77724380  0.69729657     0.35220
C855        C  0.60381727  0.63415762  0.01903698    -0.26510
C856        C  0.57190453  0.60334805  0.05375875    -0.14580
C857        C  0.51084971  0.60410187  0.04521559     0.36040
C858        C  0.48564398  0.64521189  0.01469223    -0.25960
C859        C  0.51839447  0.68197215  0.98642079    -0.15200
C860        C  0.57816460  0.67394112  0.98669846     0.37130
N861        N  0.61312955  0.70792955  0.95567753    -0.89450
H862        H  0.64994643  0.63102605  0.02029538     0.18240
H863        H  0.43941184  0.64674939  0.01151473     0.18230
N864        N  0.47370109  0.56051180  0.06292710    -0.88480
H865        H  0.65607911  0.69741118  0.95997688     0.35610
H866        H  0.61041309  0.74927709  0.96742452     0.40710
H867        H  0.45487279  0.53954623  0.03287651     0.40330
H868        H  0.44058964  0.57883077  0.08129114     0.35220
C869        C  0.56213234  0.97439620  0.67215526    -0.26510
C870        C  0.50271562  0.97781642  0.67518017    -0.14580
C871        C  0.47365961  0.01628767  0.64519873     0.36040
C872        C  0.50541250  0.05417284  0.61661605    -0.25960
C873        C  0.56620418  0.05596773  0.61795144    -0.15200
C874        C  0.59380706  0.01204648  0.64395394     0.37130
N875        N  0.65479122  0.00736998  0.64425195    -0.89450
H876        H  0.58483247  0.94382817  0.69401898     0.18240
H877        H  0.48162594  0.08257245  0.59376852     0.18230
N878        N  0.41234166  0.01900405  0.64578495    -0.88480
H879        H  0.66402996  0.96786240  0.63088381     0.35610
H880        H  0.67050532  0.00986550  0.68027763     0.40710
H881        H  0.39533956  0.98205443  0.63023996     0.40330
H882        H  0.39779157  0.05162223  0.62364778     0.35220
C883        C  0.54695559  0.99912060  0.93843564    -0.26510
C884        C  0.53295809  0.95248409  0.96682258    -0.14580
C885        C  0.49478989  0.95735449  0.00548783     0.36040
C886        C  0.46581866  0.00672434  0.00984835    -0.25960
C887        C  0.48183114  0.05411586  0.98317713    -0.15200
C888        C  0.52256096  0.05044496  0.94652257     0.37130
N889        N  0.53703852  0.09754949  0.91603719    -0.89450
H890        H  0.57557359  0.99534273  0.90876826     0.18240
H891        H  0.43261751  0.00903883  0.03588613     0.18230
N892        N  0.48323619  0.91167820  0.03833426    -0.88480
H893        H  0.55523849  0.08416332  0.88400686     0.35610
H894        H  0.57068068  0.11968951  0.93330216     0.40710
H895        H  0.45151882  0.92139307  0.06260396     0.40330
H896        H  0.52069779  0.90523994  0.05913101     0.35220
C897        C  0.85400241  0.16922588  0.69750424    -0.26510
C898        C  0.89303276  0.16693460  0.73788385    -0.14580
C899        C  0.88674446  0.11913245  0.76961950     0.36040
C900        C  0.85789483  0.07100306  0.75063307    -0.25960
C901        C  0.85087686  0.07047583  0.70004124    -0.15200
C902        C  0.82407908  0.11923423  0.68403931     0.37130
N903        N  0.78684103  0.11767668  0.64210073    -0.89450
H904        H  0.85126345  0.20537558  0.67427077     0.18240
H905        H  0.85630008  0.03251093  0.77129448     0.18230
N906        N  0.91698761  0.11547286  0.81512707    -0.88480
H907        H  0.76001502  0.08229221  0.64559954     0.35610
H908        H  0.81089165  0.11290066  0.61111672     0.40710
H909        H  0.94777251  0.08518232  0.81249281     0.40330
H910        H  0.88830298  0.09986601  0.84007400     0.35220
C911        C  0.77515237  0.09491737  0.95903248    -0.26510
C912        C  0.78126295  0.12846429  0.00124713    -0.14580
C913        C  0.83587074  0.12776609  0.02740905     0.36040
C914        C  0.88263007  0.10851267  0.00181818    -0.25960
C915        C  0.87432945  0.10943835  0.95148040    -0.15200
C916        C  0.82542080  0.07763355  0.93740831     0.37130
N917        N  0.82364544  0.04868695  0.89196634    -0.89450
H918        H  0.73527777  0.09191351  0.93820824     0.18240
H919        H  0.92551725  0.11477121  0.01711671     0.18230
N920        N  0.84908245  0.16310035  0.06822683    -0.88480
H921        H  0.78182047  0.04543563  0.87788069     0.35610
H922        H  0.83617185  0.00815564  0.89930959     0.40710
H923        H  0.87070039  0.19914175  0.05636293     0.40330
H924        H  0.87735304  0.14212014  0.09173757     0.35220
C925        C  0.71465951  0.21524801  0.64480796    -0.26510
C926        C  0.71379574  0.20372592  0.69482106    -0.14580
C927        C  0.67616873  0.16000397  0.71003181     0.36040
C928        C  0.64283635  0.12886164  0.67609963    -0.25960
C929        C  0.64419975  0.13748180  0.62515191    -0.15200
C930        C  0.68069872  0.18403171  0.61029924     0.37130
N931        N  0.68375877  0.20334850  0.56108084    -0.89450
H932        H  0.74216368  0.24907964  0.63206481     0.18240
H933        H  0.61382567  0.09871918  0.69183728     0.18230
N934        N  0.67103696  0.14587487  0.76050813    -0.88480
H935        H  0.64735426  0.22581150  0.55216678     0.35610
H936        H  0.68904654  0.17049583  0.53703221     0.40710
H937        H  0.68113992  0.10383097  0.76514187     0.40330
H938        H  0.62844311  0.15048077  0.76987203     0.35220
C939        C  0.10430574  0.12857921  0.03045558    -0.26510
C940        C  0.08860649  0.11475451  0.07822907    -0.14580
C941        C  0.04318814  0.14725978  0.09687454     0.36040
C942        C  0.01106654  0.18409420  0.06677937    -0.25960
C943        C  0.02337332  0.19322508  0.01784276    -0.15200
C944        C  0.07361547  0.16738234  0.00082608     0.37130
N945        N  0.09448890  0.18099939  0.95343981    -0.89450
H946        H  0.14157489  0.11000677  0.01581221     0.18240
H947        H  0.97522622  0.20489160  0.08199786     0.18230
N948        N  0.02739711  0.14164324  0.14652453    -0.88480
H949        H  0.13058252  0.15812880  0.94588245     0.35610
H950        H  0.10775308  0.22311967  0.95399737     0.40710
H951        H  0.03212544  0.18093517  0.16298294     0.40330
H952        H  0.98413370  0.12946377  0.14723039     0.35220
C953        C  0.79529048  0.47285006  0.72545200    -0.26510
C954        C  0.75397891  0.43032504  0.73109096    -0.14580
C955        C  0.70254739  0.43820535  0.75401159     0.36040
C956        C  0.69495333  0.48913530  0.77505781    -0.25960
C957        C  0.73452248  0.53292159  0.76640678    -0.15200
C958        C  0.78778074  0.52342356  0.74712830     0.37130
N959        N  0.83248287  0.56580211  0.74654937    -0.89450
H960        H  0.83611977  0.46476415  0.70964648     0.18240
H961        H  0.65397733  0.49664908  0.79089509     0.18230
N962        N  0.65840463  0.39496466  0.75656146    -0.88480
H963        H  0.86788519  0.54991386  0.76557521     0.35610
H964        H  0.82037735  0.60036879  0.76649637     0.40710
H965        H  0.66798877  0.36051950  0.73529224     0.40330
H966        H  0.62041092  0.41033728  0.74148101     0.35220
C967        C  0.65315471  0.44429793  0.01260923    -0.26510
C968        C  0.71288122  0.43960518  0.02126463    -0.14580
C969        C  0.73800170  0.47967864  0.05466043     0.36040
C970        C  0.70409787  0.52103623  0.07692337    -0.25960
C971        C  0.64344170  0.52429890  0.07011323    -0.15200
C972        C  0.61904221  0.48412761  0.03647067     0.37130
N973        N  0.55902999  0.48446641  0.02469790    -0.89450
H974        H  0.63219068  0.41682665  0.98583682     0.18240
H975        H  0.72734345  0.55171807  0.09899011     0.18230
N976        N  0.79853812  0.48245414  0.06525340    -0.88480
H977        H  0.54096976  0.44528705  0.03293507     0.35610
H978        H  0.55367117  0.49098674  0.98719582     0.40710
H979        H  0.81933559  0.45088481  0.04759415     0.40330
H980        H  0.80479279  0.47511217  0.10255776     0.35220
C981        C  0.99116886  0.54763191  0.71053471    -0.26510
C982        C  0.99178112  0.48876648  0.70376522    -0.14580
C983        C  0.02386832  0.47234726  0.66278774     0.36040
C984        C  0.05344187  0.51287494  0.63286146    -0.25960
C985        C  0.05724678  0.57200673  0.64164815    -0.15200
C986        C  0.02025680  0.58827066  0.68025196     0.37130
N987        N  0.01200165  0.64589579  0.69198503    -0.89450
H988        H  0.96692812  0.56312552  0.74032134     0.18240
H989        H  0.07425737  0.49618236  0.60181560     0.18230
N990        N  0.02975474  0.41446765  0.65048888    -0.88480
H991        H  0.96856392  0.65372217  0.68625700     0.35610
H992        H  0.03393723  0.67272600  0.66897272     0.40710
H993        H  0.01081561  0.38790556  0.67575734     0.40330
H994        H  0.07340166  0.40609700  0.65249537     0.35220
C995        C  0.93353541  0.49016440  0.00003770    -0.26510
C996        C  0.94709458  0.43609847  0.01348993    -0.14580
C997        C  0.00311651  0.41717440  0.01760137     0.36040
C998        C  0.04560630  0.45263415  0.00240317    -0.25960
C999        C  0.03191657  0.50535907  0.98490343    -0.15200
C1000       C  0.97589960  0.52500563  0.98322338     0.37130
N1001       N  0.96305086  0.58115937  0.96823787    -0.89450
H1002       H  0.88925884  0.50246729  0.99664696     0.18240
H1003       H  0.08937007  0.43959274  0.00523370     0.18230
N1004       N  0.01678380  0.36092714  0.03172147    -0.88480
H1005       H  0.91919118  0.58812562  0.96968344     0.35610
H1006       H  0.97445176  0.58716340  0.93216911     0.40710
H1007       H  0.98166528  0.34092501  0.04737497     0.40330
H1008       H  0.04812064  0.36303324  0.05957765     0.35220
C1009       C  0.71413574  0.95637391  0.21800684    -0.26510
C1010       C  0.67697793  0.91029647  0.22216069    -0.14580
C1011       C  0.62049013  0.91639223  0.23611691     0.36040
C1012       C  0.60405945  0.96945615  0.24847308    -0.25960
C1013       C  0.64511345  0.01322529  0.25261543    -0.15200
C1014       C  0.70123701  0.00613845  0.23948707     0.37130
N1015       N  0.74263598  0.05185939  0.24324506    -0.89450
H1016       H  0.75639741  0.95144775  0.20391069     0.18240
H1017       H  0.55903891  0.97710325  0.25028694     0.18230
N1018       N  0.57863585  0.87122005  0.23375728    -0.88480
H1019       H  0.74461053  0.06675720  0.27890562     0.35610
H1020       H  0.78353116  0.03923019  0.23489784     0.40710
H1021       H  0.56436508  0.86377339  0.26888274     0.40330
H1022       H  0.59671637  0.83443649  0.22183741     0.35220
C1023       C  0.03740056  0.72388035  0.28003567    -0.26510
C1024       C  0.00627953  0.67427171  0.26951329    -0.14580
C1025       C  0.95307575  0.67368187  0.24562119     0.36040
C1026       C  0.93841687  0.72120791  0.22054447    -0.25960
C1027       C  0.97245386  0.76972115  0.22718101    -0.15200
C1028       C  0.02341062  0.77121159  0.25462670     0.37130
N1029       N  0.06338363  0.81791106  0.25076609    -0.89450
H1030       H  0.07875200  0.72291541  0.29912306     0.18240
H1031       H  0.89696515  0.72256791  0.20184538     0.18230
N1032       N  0.91686203  0.62400711  0.24501816    -0.88480
H1033       H  0.10167784  0.81011702  0.26994118     0.35610
H1034       H  0.04616256  0.85320752  0.26609927     0.40710
H1035       H  0.93697055  0.59266793  0.22606860     0.40330
H1036       H  0.87807844  0.63140387  0.22646310     0.35220
C1037       C  0.69125218  0.70181303  0.15967867    -0.26510
C1038       C  0.72301268  0.67704732  0.19782930    -0.14580
C1039       C  0.71469545  0.61798211  0.20332789     0.36040
C1040       C  0.67584747  0.58725557  0.17155742    -0.25960
C1041       C  0.64503326  0.61122729  0.13149413    -0.15200
C1042       C  0.65217979  0.67134865  0.12817877     0.37130
N1043       N  0.61767265  0.70407901  0.09573870    -0.89450
H1044       H  0.69449062  0.74686538  0.15548412     0.18240
H1045       H  0.67123664  0.54258716  0.17747008     0.18230
N1046       N  0.74574898  0.58670935  0.23974870    -0.88480
H1047       H  0.64488263  0.72765648  0.07362482     0.35610
H1048       H  0.59487693  0.73207057  0.11631712     0.40710
H1049       H  0.77662158  0.61162544  0.25796694     0.40330
H1050       H  0.76868639  0.55657988  0.22171442     0.35220
C1051       C  0.03184634  0.95727867  0.18790972    -0.26510
C1052       C  0.97470916  0.96900738  0.17434903    -0.14580
C1053       C  0.96619676  0.00049788  0.13129132     0.36040
C1054       C  0.01415987  0.02446376  0.10762421    -0.25960
C1055       C  0.07156837  0.02321762  0.12752898    -0.15200
C1056       C  0.07985594  0.98184795  0.16473931     0.37130
N1057       N  0.13550182  0.96607305  0.18283486    -0.89450
H1058       H  0.03964312  0.93094043  0.21926858     0.18240
H1059       H  0.00482992  0.04728891  0.07445619     0.18230
N1060       N  0.90996223  0.01221021  0.11188840    -0.88480
H1061       H  0.13870310  0.97385765  0.22022734     0.35610
H1062       H  0.16787628  0.98987460  0.16745811     0.40710
H1063       H  0.87810362  0.99351863  0.13266611     0.40330
H1064       H  0.90589143  0.99431861  0.07722669     0.35220
C1065       C  0.80751434  0.68747656  0.55437448    -0.26510
C1066       C  0.77766865  0.67299124  0.51005606    -0.14580
C1067       C  0.80925192  0.64456122  0.47467556     0.36040
C1068       C  0.86866580  0.65450647  0.47660097    -0.25960
C1069       C  0.88553684  0.70063838  0.50510949    -0.15200
C1070       C  0.86653806  0.69643221  0.55223690     0.37130
N1071       N  0.90099993  0.71638547  0.59277107    -0.89450
H1072       H  0.78574280  0.69488362  0.58735896     0.18240
H1073       H  0.89431609  0.64178576  0.44666709     0.18230
N1074       N  0.78276658  0.61472654  0.43481425    -0.88480
H1075       H  0.90081630  0.68502018  0.61931046     0.35610
H1076       H  0.88152175  0.75120118  0.60719331     0.40710
H1077       H  0.81423045  0.59467238  0.41593039     0.40330
H1078       H  0.76456651  0.64349142  0.41113367     0.35220
C1079       C  0.00800524  0.68646484  0.50329161    -0.26510
C1080       C  0.01258535  0.74532166  0.51127926    -0.14580
C1081       C  0.04467914  0.76054225  0.55426459     0.36040
C1082       C  0.06774242  0.71906462  0.58683920    -0.25960
C1083       C  0.06413022  0.65966701  0.57864610    -0.15200
C1084       C  0.02733907  0.64501936  0.53765633     0.37130
N1085       N  0.00848309  0.58825354  0.52923617    -0.89450
H1086       H  0.98634551  0.67184439  0.47022663     0.18240
H1087       H  0.08979665  0.73529671  0.61907150     0.18230
N1088       N  0.05910555  0.81797192  0.56438925    -0.88480
H1089       H  0.98518871  0.57478712  0.55910855     0.35610
H1090       H  0.04350637  0.56272119  0.52613772     0.40710
H1091       H  0.05021709  0.84181396  0.53347589     0.40330
H1092       H  0.10362853  0.82146020  0.56900213     0.35220
C1093       C  0.69465378  0.06055177  0.55270740    -0.26510
C1094       C  0.63447515  0.06265247  0.55190713    -0.14580
C1095       C  0.60518527  0.02209879  0.52037827     0.36040
C1096       C  0.63573803  0.98049612  0.49636986    -0.25960
C1097       C  0.69555127  0.97701956  0.50056928    -0.15200
C1098       C  0.72479463  0.01940037  0.52806539     0.37130
N1099       N  0.78580392  0.02289233  0.52982801    -0.89450
H1100       H  0.71961601  0.09107553  0.57280620     0.18240
H1101       H  0.61195600  0.95071447  0.47332703     0.18230
N1102       N  0.54442529  0.02093420  0.51102515    -0.88480
H1103       H  0.79947423  0.02178171  0.56643126     0.35610
H1104       H  0.79854257  0.06164977  0.51550693     0.40710
H1105       H  0.52508506  0.05684480  0.52245318     0.40330
H1106       H  0.52682791  0.98670762  0.52963841     0.35220
C1107       C  0.96975034  0.02069070  0.43885189    -0.26510
C1108       C  0.92214178  0.99415585  0.45925739    -0.14580
C1109       C  0.92942944  0.95343364  0.49605679     0.36040
C1110       C  0.98409135  0.93898471  0.51029734    -0.25960
C1111       C  0.03164824  0.96543619  0.49031878    -0.15200
C1112       C  0.02472318  0.00514462  0.45222538     0.37130
N1113       N  0.07260291  0.02984104  0.42742571    -0.89450
H1114       H  0.96417160  0.05209373  0.41087574     0.18240
H1115       H  0.98911843  0.90950802  0.53978284     0.18230
N1116       N  0.88170907  0.92583823  0.51843031    -0.88480
H1117       H  0.05894839  0.05135829  0.39625927     0.35610
H1118       H  0.09123383  0.06106812  0.44948926     0.40710
H1119       H  0.86107475  0.95478230  0.53917402     0.40330
H1120       H  0.89429115  0.89375414  0.54187047     0.35220
C1121       C  0.79240182  0.91534605  0.95604120    -0.26510
C1122       C  0.78175524  0.90494293  0.90588449    -0.14580
C1123       C  0.73723694  0.93889044  0.88416347     0.36040
C1124       C  0.70295646  0.97390418  0.91318819    -0.25960
C1125       C  0.71071315  0.97953362  0.96411683    -0.15200
C1126       C  0.75828300  0.94986340  0.98462706     0.37130
N1127       N  0.77560906  0.95502732  0.03477790    -0.89450
H1128       H  0.82880856  0.89681217  0.97432283     0.18240
H1129       H  0.67065777  0.99839496  0.89483084     0.18230
N1130       N  0.72387164  0.93908947  0.83277154    -0.88480
H1131       H  0.74299467  0.93847750  0.05603911     0.35610
H1132       H  0.78391105  0.99727134  0.04254766     0.40710
H1133       H  0.74884387  0.91212966  0.81390282     0.40330
H1134       H  0.73307674  0.97925854  0.81954307     0.35220
C1135       C  0.85643820  0.89767654  0.79114607    -0.26510
C1136       C  0.86141548  0.89757526  0.84289243    -0.14580
C1137       C  0.90910814  0.93036890  0.86243445     0.36040
C1138       C  0.94900508  0.95871913  0.83159301    -0.25960
C1139       C  0.94532006  0.95505336  0.78023697    -0.15200
C1140       C  0.89745010  0.92368448  0.76043805     0.37130
N1141       N  0.88886582  0.91959228  0.70850603    -0.89450
H1142       H  0.82029532  0.87677210  0.77315462     0.18240
H1143       H  0.98411893  0.98297834  0.84834707     0.18230
N1144       N  0.91927124  0.93310420  0.91409601    -0.88480
H1145       H  0.84892725  0.90112140  0.69938278     0.35610
H1146       H  0.91911689  0.89213797  0.69603882     0.40710
H1147       H  0.95914016  0.91600038  0.92207752     0.40330
H1148       H  0.92216472  0.97511574  0.92444640     0.35220
C1149       C  0.80538357  0.78262817  0.81149776    -0.26510
C1150       C  0.77956179  0.81672222  0.84616314    -0.14580
C1151       C  0.71977408  0.80453668  0.85254703     0.36040
C1152       C  0.68827396  0.76706544  0.82072969    -0.25960
C1153       C  0.71329238  0.74095497  0.78133579    -0.15200
C1154       C  0.77347299  0.74784831  0.77837147     0.37130
N1155       N  0.80319426  0.71938739  0.74146746    -0.89450
H1156       H  0.85126278  0.78551213  0.80767975     0.18240
H1157       H  0.64364746  0.75914014  0.82680420     0.18230
N1158       N  0.69018042  0.82796160  0.89200779    -0.88480
H1159       H  0.83468890  0.69556143  0.75868334     0.35610
H1160       H  0.82417474  0.74958709  0.72040803     0.40710
H1161       H  0.67406889  0.79513264  0.91307663     0.40330
H1162       H  0.65530009  0.84941278  0.87736800     0.35220
C1163       C  0.91218204  0.80426342  0.89714218    -0.26510
C1164       C  0.85711695  0.82016232  0.91139993    -0.14580
C1165       C  0.83626396  0.79018207  0.95278349     0.36040
C1166       C  0.87249979  0.75500819  0.98177155    -0.25960
C1167       C  0.92859780  0.74249830  0.96861829    -0.15200
C1168       C  0.94682976  0.76614027  0.92376673     0.37130
N1169       N  0.00088112  0.75166140  0.90451757    -0.89450
H1170       H  0.92854127  0.81993582  0.86327635     0.18240
H1171       H  0.85566677  0.73602639  0.01437270     0.18230
N1172       N  0.77773965  0.79412742  0.96559447    -0.88480
H1173       H  0.01002855  0.77516998  0.87343787     0.35610
H1174       H  0.99719919  0.70997601  0.89321106     0.40710
H1175       H  0.77669960  0.80785333  0.00165094     0.40330
H1176       H  0.75900547  0.75393684  0.96409402     0.35220
loop_ 
_geom_bond_atom_site_label_1 
_geom_bond_atom_site_label_2 
_geom_bond_distance 
_geom_bond_site_symmetry_2 
_ccdc_geom_bond_type 
C1         C1122   1.621       .  S
C1         C1136   1.626       .  S
C1         C1150   1.603       .  S
C1         C1164   1.615       .  S
O2          Zr14   2.409   1_545  S
O2            C4   1.259       .  A
O3          Zr40   2.416       .  S
O3            C4   1.250   1_565  A
C4         C1108   1.447   1_545  S
O5          Zr17   2.482       .  S
O5            C7   1.282       .  A
O6          Zr41   2.376       .  S
O6            C7   1.269       .  A
C7         C1010   1.415       .  S
O8          Zr17   2.459       .  S
O8           C10   1.287       .  A
O9          Zr40   2.521       .  S
O9           C10   1.301       .  A
C10        C1097   1.522       .  S
O11         Zr14   2.446       .  S
O11          C13   1.286       .  A
O12         Zr41   2.526       .  S
O12          C13   1.304       .  A
C13        C1052   1.520       .  S
Zr14         O15   2.433   1_565  S
Zr14         O16   2.432       .  S
Zr14         O20   2.392       .  S
Zr14         O21   2.378       .  S
Zr14         O44   2.292       .  S
Zr14         O46   2.444       .  S
O15          H58   0.990       .  S
O16          H57   0.987   1_655  S
O16          H61   0.989   1_565  S
Zr17         O18   2.429       .  S
Zr17         O19   2.424       .  S
Zr17         O21   2.409       .  S
Zr17         O20   2.362       .  S
Zr17         O45   2.388       .  S
Zr17         O47   2.323       .  S
O18          H59   0.984   1_565  S
O18          H62   0.986   1_565  S
O19          H52   0.990       .  S
O20         Zr40   2.331       .  S
O21         Zr41   2.434       .  S
O21          H48   0.948       .  S
O22         Zr34   2.491       .  S
O22          C24   1.284       .  A
O23         Zr41   2.356       .  S
O23          C24   1.262       .  A
C24        C1027   1.382       .  S
O25         Zr37   2.452       .  S
O25          C27   1.288       .  A
O26         Zr40   2.356       .  S
O26          C27   1.271       .  A
C27        C1069   1.479       .  S
O28         Zr37   2.493       .  S
O28          C30   1.297       .  A
O29         Zr41   2.506       .  S
O29          C30   1.302       .  A
C30        C1038   1.540       .  S
O31         Zr34   2.475       .  S
O31          C33   1.288       .  A
O32         Zr40   2.625       .  S
O32          C33   1.322       .  A
C33        C1080   1.582   1_655  S
Zr34         O35   2.445       .  S
Zr34         O36   2.433   1_655  S
Zr34         O42   2.423       .  S
Zr34         O43   2.304       .  S
Zr34         O46   2.420       .  S
Zr34         O44   2.367       .  S
O35          H55   0.982       .  S
O35          H60   0.989   1_655  S
O36          H56   0.990       .  S
Zr37         O38   2.429       .  S
Zr37         O39   2.438       .  S
Zr37         O43   2.344       .  S
Zr37         O42   2.373       .  S
Zr37         O47   2.334       .  S
Zr37         O45   2.428       .  S
O38          H54   0.988       .  S
O39          H53   0.990       .  S
O39          H63   0.990       .  S
Zr40         O43   2.346       .  S
Zr40         O45   2.444       .  S
Zr40         O46   2.410       .  S
Zr41         O42   2.434       .  S
Zr41         O44   2.419       .  S
Zr41         O47   2.400       .  S
O42          H50   0.953       .  S
O45          H49   0.967       .  S
O46          H51   0.962       .  S
O64         Zr76   2.500       .  S
O64          C66   1.295       .  A
O65        Zr102   2.306   1_554  S
O65          C66   1.259   1_554  A
C66         C996   1.361   1_556  S
O67         Zr79   2.503       .  S
O67          C69   1.293       .  A
O68        Zr103   2.339       .  S
O68          C69   1.263       .  A
C69         C954   1.379       .  S
O70         Zr79   2.442       .  S
O70          C72   1.285       .  A
O71        Zr102   2.592   1_554  S
O71          C72   1.319   1_554  A
C72         C968   1.556   1_556  S
O73         Zr76   2.536       .  S
O73          C75   1.304       .  A
O74        Zr103   2.564       .  S
O74          C75   1.314       .  A
C75         C982   1.587       .  S
Zr76         O77   2.417       .  S
Zr76         O78   2.439   1_655  S
Zr76         O82   2.386       .  S
Zr76         O83   2.373       .  S
Zr76        O106   2.403       .  S
Zr76        O108   2.415       .  S
O77         H120   0.990       .  S
O78         H119   0.988       .  S
O78         H123   0.989       .  S
Zr79         O80   2.438       .  S
Zr79         O81   2.431       .  S
Zr79         O83   2.416       .  S
Zr79         O82   2.345       .  S
Zr79        O107   2.446       .  S
Zr79        O109   2.361       .  S
O80         H121   0.984       .  S
O80         H124   0.988       .  S
O81         H114   0.990       .  S
O82        Zr102   2.431       .  S
O83        Zr103   2.438       .  S
O83         H110   0.960       .  S
O84         Zr96   2.444       .  S
O84          C86   1.279       .  A
O85        Zr103   2.406       .  S
O85          C86   1.274       .  A
C86         C898   1.492       .  S
O87         Zr99   2.367       .  S
O87          C89   1.258       .  A
O88        Zr102   2.411       .  S
O88          C89   1.289       .  A
C89         C915   1.502       .  S
O90         Zr99   2.399       .  S
O90          C92   1.275       .  A
O91        Zr103   2.509       .  S
O91          C92   1.298       .  A
C92         C926   1.512       .  S
O93         Zr96   2.423       .  S
O93          C95   1.277       .  A
O94        Zr102   2.545       .  S
O94          C95   1.308       .  A
C95         C943   1.538   1_656  S
Zr96         O97   2.450       .  S
Zr96         O98   2.433   1_655  S
Zr96        O104   2.375       .  S
Zr96        O105   2.399       .  S
Zr96        O108   2.370       .  S
Zr96        O106   2.356       .  S
O97         H117   0.987       .  S
O97         H122   0.990   1_655  S
O98         H118   0.990       .  S
Zr99        O100   2.422       .  S
Zr99        O101   2.438       .  S
Zr99        O105   2.351       .  S
Zr99        O104   2.300       .  S
Zr99        O109   2.294       .  S
Zr99        O107   2.346       .  S
O100        H116   0.989       .  S
O101        H115   0.990       .  S
O101        H125   0.990       .  S
Zr102       O105   2.288       .  S
Zr102       O107   2.373       .  S
Zr102       O108   2.479       .  S
Zr103       O104   2.393       .  S
Zr103       O106   2.424       .  S
Zr103       O109   2.471       .  S
O104        H112   0.935       .  S
O107        H111   0.965       .  S
O108        H113   0.966       .  S
O126       Zr138   2.506       .  S
O126        C128   1.299       .  A
O127       Zr164   2.486       .  S
O127        C128   1.299       .  A
C128        C859   1.520       .  S
O129       Zr141   2.420       .  S
O129        C131   1.284       .  A
O130       Zr165   2.458       .  S
O130        C131   1.290       .  A
C131        C870   1.481       .  S
O132       Zr141   2.462       .  S
O132        C134   1.280       .  A
O133       Zr164   2.434       .  S
O133        C134   1.262       .  A
C134        C884   1.453       .  S
O135       Zr138   2.477       .  S
O135        C137   1.292       .  A
O136       Zr165   2.292       .  S
O136        C137   1.256       .  A
C137        C842   1.361       .  S
Zr138       O139   2.417       .  S
Zr138       O140   2.434       .  S
Zr138       O144   2.356       .  S
Zr138       O145   2.385       .  S
Zr138       O168   2.370       .  S
Zr138       O170   2.369       .  S
O139        H182   0.990       .  S
O140        H181   0.990       .  S
O140        H185   0.990       .  S
Zr141       O142   2.440       .  S
Zr141       O143   2.419   1_565  S
Zr141       O145   2.369       .  S
Zr141       O144   2.366       .  S
Zr141       O169   2.402       .  S
Zr141       O171   2.373       .  S
O142        H183   0.990       .  S
O142        H186   0.990       .  S
O143        H176   0.990       .  S
O144       Zr164   2.402       .  S
O145       Zr165   2.469       .  S
O145        H172   0.958       .  S
O146       Zr158   2.453       .  S
O146        C148   1.286       .  A
O147       Zr165   2.542       .  S
O147        C148   1.303       .  A
C148        C814   1.549       .  S
O149       Zr161   2.362       .  S
O149        C151   1.267       .  A
O150       Zr164   2.682   1_554  S
O150        C151   1.340   1_554  A
C151        C828   1.581   1_556  S
O152       Zr161   2.414       .  S
O152        C154   1.265       .  A
O153       Zr165   2.336       .  S
O153        C154   1.248       .  A
C154        C803   1.396   1_565  S
O155       Zr158   2.424       .  S
O155        C157   1.265       .  A
O156       Zr164   2.392   1_554  S
O156        C157   1.264   1_554  A
C157        C786   1.408   1_556  S
Zr158       O159   2.432       .  S
Zr158       O160   2.436       .  S
Zr158       O166   2.373       .  S
Zr158       O167   2.371       .  S
Zr158       O170   2.391       .  S
Zr158       O168   2.341       .  S
O159        H179   0.990       .  S
O159        H184   0.990       .  S
O160        H180   0.990       .  S
Zr161       O162   2.419   1_565  S
Zr161       O163   2.439   1_565  S
Zr161       O167   2.357       .  S
Zr161       O166   2.388       .  S
Zr161       O171   2.341       .  S
Zr161       O169   2.354       .  S
O162        H178   0.991   1_545  S
O163        H177   0.989       .  S
O163        H187   0.990       .  S
Zr164       O167   2.398       .  S
Zr164       O169   2.418       .  S
Zr164       O170   2.502       .  S
Zr165       O166   2.383       .  S
Zr165       O168   2.414       .  S
Zr165       O171   2.415       .  S
O166        H174   0.949       .  S
O169        H173   0.952       .  S
O170        H175   0.978       .  S
C188        C733   1.623       .  S
C188        C744   1.616       .  S
C188        C761   1.622       .  S
C188        C772   1.599       .  S
C189        C677   1.634       .  S
C189        C688   1.633       .  S
C189        C702   1.644       .  S
C189        C716   1.647       .  S
C190        C618   1.605       .  S
C190        C635   1.657       .  S
C190        C649   1.649       .  S
C190        C660   1.621       .  S
O191       Zr203   2.386       .  S
O191        C193   1.272       .  A
O192       Zr229   2.481   1_655  S
O192        C193   1.305       .  A
C193        C901   1.488       .  S
O194       Zr206   2.443       .  S
O194        C196   1.277       .  A
O195       Zr230   2.405   1_565  S
O195        C196   1.256       .  A
C196       C1111   1.445       .  S
O197       Zr206   2.504   1_655  S
O197        C199   1.299       .  A
O198       Zr229   2.508       .  S
O198        C199   1.304   1_445  A
C199       C1139   1.548       .  S
O200       Zr203   2.389       .  S
O200        C202   1.269   1_655  A
O201       Zr230   2.568       .  S
O201        C202   1.308       .  A
C202        C646   1.521   1_455  S
Zr203       O204   2.439       .  S
Zr203       O205   2.430       .  S
Zr203       O209   2.290   1_655  S
Zr203       O210   2.376   1_655  S
Zr203       O233   2.331   1_655  S
Zr203       O235   2.426   1_655  S
O204        H247   0.989       .  S
O205        H246   0.990       .  S
O205        H250   0.990       .  S
Zr206       O207   2.409   1_455  S
Zr206       O208   2.433       .  S
Zr206       O210   2.489   1_565  S
Zr206       O209   2.295   1_565  S
Zr206       O234   2.381   1_565  S
Zr206       O236   2.379   1_565  S
O207        H248   0.984       .  S
O207        H251   0.986       .  S
O208        H241   0.990       .  S
O209       Zr229   2.278       .  S
O210       Zr230   2.404       .  S
O210        H237   0.955   1_455  S
O211       Zr223   2.422       .  S
O211        C213   1.265       .  A
O212       Zr230   2.399       .  S
O212        C213   1.263       .  A
C213        C604   1.436       .  S
O214       Zr226   2.554       .  S
O214        C216   1.310       .  A
O215       Zr229   2.293       .  S
O215        C216   1.263       .  A
C216        C800   1.398       .  S
O217       Zr226   2.649       .  S
O217        C219   1.328       .  A
O218       Zr230   2.450       .  S
O218        C219   1.289       .  A
C219        C705   1.583   1_545  S
O220       Zr223   2.389       .  S
O220        C222   1.273       .  A
O221       Zr229   2.635       .  S
O221        C222   1.321       .  A
C222        C730   1.571       .  S
Zr223       O224   2.453       .  S
Zr223       O225   2.438       .  S
Zr223       O231   2.415       .  S
Zr223       O232   2.334       .  S
Zr223       O235   2.396       .  S
Zr223       O233   2.337       .  S
O224        H244   0.988       .  S
O224        H249   0.987       .  S
O225        H245   0.989       .  S
Zr226       O227   2.433       .  S
Zr226       O228   2.421   1_545  S
Zr226       O232   2.391       .  S
Zr226       O231   2.371       .  S
Zr226       O236   2.328       .  S
Zr226       O234   2.399       .  S
O227        H243   0.990       .  S
O228        H242   0.990       .  S
O228        H252   0.990       .  S
Zr229       O232   2.393       .  S
Zr229       O234   2.458       .  S
Zr229       O235   2.395       .  S
Zr230       O231   2.428       .  S
Zr230       O233   2.339       .  S
Zr230       O236   2.382       .  S
O231        H239   0.951       .  S
O234        H238   0.963       .  S
O235        H240   0.964       .  S
O253       Zr265   2.533   1_655  S
O253        C255   1.303       .  A
O254       Zr291   2.474   1_556  S
O254        C255   1.297   1_456  A
C255       C1167   1.547   1_554  S
O256       Zr268   2.473       .  S
O256        C258   1.291       .  A
O257       Zr292   2.520       .  S
O257        C258   1.306       .  A
C258        C674   1.545       .  S
O259       Zr268   2.483       .  S
O259        C261   1.284       .  A
O260       Zr291   2.428   1_556  S
O260        C261   1.262   1_556  A
C261        C789   1.428   1_554  S
O262       Zr265   2.499       .  S
O262        C264   1.296       .  A
O263       Zr292   2.337       .  S
O263        C264   1.265       .  A
C264       C1024   1.380       .  S
Zr265       O266   2.433       .  S
Zr265       O267   2.435   1_455  S
Zr265       O271   2.302       .  S
Zr265       O272   2.424       .  S
Zr265       O295   2.348       .  S
Zr265       O297   2.384       .  S
O266        H309   0.989   1_455  S
O267        H308   0.990       .  S
O267        H312   0.990       .  S
Zr268       O269   2.440       .  S
Zr268       O270   2.431       .  S
Zr268       O272   2.382       .  S
Zr268       O271   2.336       .  S
Zr268       O296   2.436       .  S
Zr268       O298   2.319       .  S
O269        H310   0.990       .  S
O269        H313   0.989       .  S
O270        H303   0.985       .  S
O271       Zr291   2.351       .  S
O272       Zr292   2.442       .  S
O272        H299   0.955       .  S
O273       Zr285   2.477       .  S
O273        C275   1.292       .  A
O274       Zr292   2.563       .  S
O274        C275   1.310       .  A
C275        C632   1.559       .  S
O276       Zr288   2.437       .  S
O276        C278   1.284   1_554  A
O277       Zr291   2.587   1_556  S
O277        C278   1.315       .  A
C278        C747   1.544       .  S
O279       Zr288   2.468       .  S
O279        C281   1.274       .  A
O280       Zr292   2.452       .  S
O280        C281   1.263       .  A
C281        C590   1.436       .  S
O282       Zr285   2.459       .  S
O282        C284   1.280   1_554  A
O283       Zr291   2.346   1_556  S
O283        C284   1.261       .  A
C284        C999   1.381       .  S
Zr285       O286   2.432       .  S
Zr285       O287   2.421   1_455  S
Zr285       O293   2.404       .  S
Zr285       O294   2.343       .  S
Zr285       O297   2.406       .  S
Zr285       O295   2.314       .  S
O286        H306   0.989       .  S
O286        H311   0.990       .  S
O287        H307   0.990       .  S
Zr288       O289   2.438       .  S
Zr288       O290   2.445       .  S
Zr288       O294   2.328       .  S
Zr288       O293   2.437       .  S
Zr288       O298   2.346       .  S
Zr288       O296   2.405       .  S
O289        H305   0.988       .  S
O290        H304   0.989       .  S
O290        H314   0.990       .  S
Zr291       O294   2.384       .  S
Zr291       O296   2.413       .  S
Zr291       O297   2.454       .  S
Zr292       O293   2.430       .  S
Zr292       O295   2.403       .  S
Zr292       O298   2.327       .  S
O293        H301   0.957       .  S
O296        H300   0.949       .  S
O297        H302   0.959       .  S
O315       Zr327   2.378       .  S
O315        C317   1.270       .  A
O316       Zr353   2.451   1_556  S
O316        C317   1.292   1_556  A
C317        C912   1.482       .  S
O318       Zr330   2.405       .  S
O318        C320   1.266       .  A
O319       Zr354   2.413       .  S
O319        C320   1.259       .  A
C320       C1013   1.395       .  S
O321       Zr330   2.468       .  S
O321        C323   1.289   1_554  A
O322       Zr353   2.555   1_556  S
O322        C323   1.313       .  A
C323       C1125   1.565   1_545  S
O324       Zr327   2.453       .  S
O324        C326   1.287       .  A
O325       Zr354   2.518       .  S
O325        C326   1.300       .  A
C326        C621   1.511       .  S
Zr327       O328   2.430       .  S
Zr327       O329   2.438       .  S
Zr327       O333   2.362       .  S
Zr327       O334   2.369       .  S
Zr327       O357   2.335       .  S
Zr327       O359   2.426       .  S
O328        H371   0.989       .  S
O329        H370   0.990       .  S
O329        H374   0.991       .  S
Zr330       O331   2.431       .  S
Zr330       O332   2.430   1_545  S
Zr330       O334   2.430       .  S
Zr330       O333   2.328       .  S
Zr330       O358   2.363       .  S
Zr330       O360   2.374       .  S
O331        H372   0.982       .  S
O331        H375   0.986   1_545  S
O332        H365   0.990       .  S
O333       Zr353   2.393       .  S
O334       Zr354   2.426       .  S
O334        H361   0.963       .  S
O335       Zr347   2.395       .  S
O335        C337   1.253       .  A
O336       Zr354   2.428       .  S
O336        C337   1.249       .  A
C337        C576   1.438       .  S
O338       Zr350   2.445       .  S
O338        C340   1.278       .  A
O339       Zr353   2.450   1_556  S
O339        C340   1.266   1_556  A
C340        C887   1.448   1_554  S
O341       Zr350   2.505       .  S
O341        C343   1.297       .  A
O342       Zr354   2.560       .  S
O342        C343   1.311       .  A
C343        C691   1.567       .  S
O344       Zr347   2.417       .  S
O344        C346   1.280   1_554  A
O345       Zr353   2.583   1_556  S
O345        C346   1.317       .  A
C346        C758   1.560       .  S
Zr347       O348   2.426       .  S
Zr347       O349   2.425       .  S
Zr347       O355   2.450       .  S
Zr347       O356   2.282       .  S
Zr347       O359   2.365       .  S
Zr347       O357   2.375       .  S
O348        H368   0.987       .  S
O348        H373   0.987       .  S
O349        H369   0.988       .  S
Zr350       O351   2.436       .  S
Zr350       O352   2.434       .  S
Zr350       O356   2.395       .  S
Zr350       O355   2.420       .  S
Zr350       O360   2.322       .  S
Zr350       O358   2.462       .  S
O351        H367   0.990       .  S
O352        H366   0.990   1_545  S
O352        H376   0.989       .  S
Zr353       O356   2.369       .  S
Zr353       O358   2.442       .  S
Zr353       O359   2.424       .  S
Zr354       O355   2.429       .  S
Zr354       O357   2.343       .  S
Zr354       O360   2.424       .  S
O355        H363   0.950       .  S
O358        H362   0.958       .  S
O359        H364   0.966       .  S
C377        C565   1.614       .  S
C377        C856   1.611       .  S
C377        C971   1.630       .  S
C377       C1041   1.628       .  S
C378        C548   1.639       .  S
C378        C817   1.618       .  S
C378        C985   1.666       .  S
C378       C1083   1.649       .  S
O379       Zr391   2.479       .  S
O379        C381   1.295       .  A
O380       Zr417   2.557       .  S
O380        C381   1.312       .  A
C381        C551   1.564       .  S
O382       Zr394   2.528       .  S
O382        C384   1.306       .  A
O383       Zr418   2.424       .  S
O383        C384   1.287       .  A
C384        C509   1.518       .  S
O385       Zr394   2.474       .  S
O385        C387   1.300       .  A
O386       Zr417   2.277       .  S
O386        C387   1.261       .  A
C387        C607   1.455       .  S
O388       Zr391   2.515       .  S
O388        C390   1.278       .  A
O389       Zr418   2.357       .  S
O389        C390   1.256       .  A
C390        C593   1.402       .  S
Zr391       O392   2.447       .  S
Zr391       O393   2.445       .  S
Zr391       O397   2.387       .  S
Zr391       O398   2.370       .  S
Zr391       O421   2.387       .  S
Zr391       O423   2.365       .  S
O392        H435   0.990       .  S
O393        H434   0.990       .  S
O393        H438   0.990       .  S
Zr394       O395   2.435       .  S
Zr394       O396   2.433       .  S
Zr394       O398   2.340       .  S
Zr394       O397   2.379       .  S
Zr394       O422   2.356       .  S
Zr394       O424   2.340       .  S
O395        H436   0.989       .  S
O395        H439   0.990       .  S
O396        H429   0.990       .  S
O397       Zr417   2.421       .  S
O398       Zr418   2.509       .  S
O398        H425   0.983       .  S
O399       Zr411   2.355       .  S
O399        C401   1.265       .  A
O400       Zr418   2.683       .  S
O400        C401   1.328       .  A
C401        C562   1.556       .  S
O402       Zr414   2.371       .  S
O402        C404   1.267       .  A
O403       Zr417   2.551       .  S
O403        C404   1.308       .  A
C404        C523   1.498       .  S
O405       Zr414   2.457       .  S
O405        C407   1.273       .  A
O406       Zr418   2.418       .  S
O406        C407   1.245       .  A
C407        C579   1.426       .  S
O408       Zr411   2.383       .  S
O408        C410   1.257       .  A
O409       Zr417   2.395       .  S
O409        C410   1.268       .  A
C410        C534   1.445       .  S
Zr411       O412   2.432       .  S
Zr411       O413   2.434       .  S
Zr411       O419   2.426       .  S
Zr411       O420   2.365       .  S
Zr411       O423   2.387       .  S
Zr411       O421   2.369       .  S
O412        H432   0.986       .  S
O412        H437   0.990       .  S
O413        H433   0.990       .  S
Zr414       O415   2.420       .  S
Zr414       O416   2.472       .  S
Zr414       O420   2.387       .  S
Zr414       O419   2.378       .  S
Zr414       O424   2.315       .  S
Zr414       O422   2.308       .  S
O415        H431   0.988       .  S
O416        H430   0.991       .  S
O416        H440   0.989       .  S
Zr417       O420   2.375       .  S
Zr417       O422   2.427       .  S
Zr417       O423   2.390       .  S
Zr418       O419   2.397       .  S
Zr418       O421   2.427       .  S
Zr418       O424   2.374       .  S
O419        H427   0.963       .  S
O422        H426   0.963       .  S
O423        H428   0.966       .  S
O441       Zr453   2.514       .  S
O441        C443   1.293       .  A
O442       Zr479   2.347       .  S
O442        C443   1.262       .  A
C443        C957   1.399       .  S
O444       Zr456   2.461       .  S
O444        C446   1.282       .  A
O445       Zr480   2.353       .  S
O445        C446   1.260       .  A
C446       C1066   1.463       .  S
O447       Zr456   2.444       .  S
O447        C449   1.286       .  A
O448       Zr479   2.543       .  S
O448        C449   1.308       .  A
C449       C1153   1.528       .  S
O450       Zr453   2.507       .  S
O450        C452   1.296       .  A
O451       Zr480   2.545       .  S
O451        C452   1.307       .  A
C452        C663   1.562       .  S
Zr453       O454   2.433       .  S
Zr453       O455   2.444       .  S
Zr453       O459   2.315       .  S
Zr453       O460   2.324       .  S
Zr453       O483   2.362       .  S
Zr453       O485   2.357       .  S
O454        H497   0.990       .  S
O455        H496   0.984       .  S
O455        H500   0.989       .  S
Zr456       O457   2.457       .  S
Zr456       O458   2.434       .  S
Zr456       O460   2.389       .  S
Zr456       O459   2.367       .  S
Zr456       O484   2.395       .  S
Zr456       O486   2.384       .  S
O457        H498   0.989       .  S
O457        H501   0.990       .  S
O458        H491   0.990       .  S
O459       Zr479   2.410       .  S
O460       Zr480   2.396       .  S
O460        H487   0.941       .  S
O461       Zr473   2.449       .  S
O461        C463   1.263       .  A
O462       Zr480   2.296       .  S
O462        C463   1.237       .  A
C463        C537   1.507       .  S
O464       Zr476   2.512       .  S
O464        C466   1.292       .  A
O465       Zr479   2.377       .  S
O465        C466   1.265       .  A
C466        C845   1.388       .  S
O467       Zr476   2.447       .  S
O467        C469   1.285       .  A
O468       Zr480   2.652       .  S
O468        C469   1.329       .  A
C469        C719   1.607       .  S
O470       Zr473   2.477       .  S
O470        C472   1.294       .  A
O471       Zr479   2.505       .  S
O471        C472   1.305       .  A
C472        C775   1.536       .  S
Zr473       O474   2.429       .  S
Zr473       O475   2.433       .  S
Zr473       O481   2.503       .  S
Zr473       O482   2.294       .  S
Zr473       O485   2.417       .  S
Zr473       O483   2.393       .  S
O474        H494   0.989       .  S
O474        H499   0.989       .  S
O475        H495   0.990       .  S
Zr476       O477   2.432       .  S
Zr476       O478   2.376       .  S
Zr476       O482   2.327       .  S
Zr476       O481   2.423       .  S
Zr476       O486   2.393       .  S
Zr476       O484   2.406       .  S
O477        H493   0.990       .  S
O478        H492   0.984       .  S
O478        H502   0.981       .  S
Zr479       O482   2.389       .  S
Zr479       O484   2.411       .  S
Zr479       O485   2.434       .  S
Zr480       O481   2.427       .  S
Zr480       O483   2.387       .  S
Zr480       O486   2.349       .  S
O481        H489   0.964       .  S
O484        H488   0.947       .  S
O485        H490   0.958       .  S
C503        C520   1.571       .  S
C503        C873   1.575       .  S
C503        C929   1.602       .  S
C503       C1094   1.604       .  S
C504        C506   1.595       .  S
C504        C831   1.650       .  S
C504        C940   1.611       .  S
C504       C1055   1.610       .  S
C505        C506   1.412       .  A
C505        C510   1.405       .  A
C505        H512   1.084       .  S
C506        C507   1.443       .  A
C507        C508   1.422       .  A
C507        N514   1.430       .  S
C508        C509   1.402       .  A
C508        H513   1.084       .  S
C509        C510   1.421       .  A
C510        N511   1.433       .  S
N511        H515   1.046       .  S
N511        H516   1.045       .  S
N514        H517   1.046       .  S
N514        H518   1.045       .  S
C519        C520   1.402       .  A
C519        C524   1.384       .  A
C519        H526   1.080       .  S
C520        C521   1.451       .  A
C521        C522   1.415       .  A
C521        N528   1.438       .  S
C522        C523   1.395       .  A
C522        H527   1.084       .  S
C523        C524   1.428       .  A
C524        N525   1.435       .  S
N525        H529   1.043       .  S
N525        H530   1.039       .  S
N528        H531   1.034       .  S
N528        H532   1.046       .  S
C533        C534   1.399       .  A
C533        C538   1.397       .  A
C533        H540   1.084       .  S
C534        C535   1.422       .  A
C535        C536   1.398       .  A
C535        N542   1.405       .  S
C536        C537   1.375       .  A
C536        H541   1.085       .  S
C537        C538   1.420       .  A
C538        N539   1.434       .  S
N539        H543   1.046       .  S
N539        H544   1.045       .  S
N542        H545   1.046       .  S
N542        H546   1.036       .  S
C547        C548   1.432       .  A
C547        C552   1.441       .  A
C547        H554   1.083       .  S
C548        C549   1.439       .  A
C549        C550   1.427       .  A
C549        N556   1.430       .  S
C550        C551   1.414       .  A
C550        H555   1.083       .  S
C551        C552   1.433       .  A
C552        N553   1.436       .  S
N553        H557   1.046       .  S
N553        H558   1.040       .  S
N556        H559   1.046       .  S
N556        H560   1.046       .  S
C561        C562   1.416       .  A
C561        C566   1.425       .  A
C561        H568   1.082       .  S
C562        C563   1.417       .  A
C563        C564   1.431       .  A
C563        N570   1.427       .  S
C564        C565   1.419       .  A
C564        H569   1.080       .  S
C565        C566   1.444       .  A
C566        N567   1.437       .  S
N567        H571   1.045       .  S
N567        H572   1.032       .  S
N570        H573   1.040       .  S
N570        H574   1.045       .  S
C575        C576   1.406       .  A
C575        C580   1.386       .  A
C575        H582   1.081       .  S
C576        C577   1.398       .  A
C577        C578   1.366       .  A
C577        N584   1.438       .  S
C578        C579   1.389       .  A
C578        H583   1.067       .  S
C579        C580   1.419       .  A
C580        N581   1.448       .  S
N581        H585   1.043       .  S
N581        H586   1.037       .  S
N584        H587   1.046       .  S
N584        H588   1.045       .  S
C589        C590   1.411       .  A
C589        C594   1.367       .  A
C589        H596   1.083       .  S
C590        C591   1.407       .  A
C591        C592   1.383       .  A
C591        N598   1.439       .  S
C592        C593   1.394       .  A
C592        H597   1.083       .  S
C593        C594   1.375       .  A
C594        N595   1.426       .  S
N595        H599   1.030       .  S
N595        H600   1.046       .  S
N598        H601   1.038       .  S
N598        H602   1.045       .  S
C603        C604   1.427       .  A
C603        C608   1.407       .  A
C603        H610   1.077       .  S
C604        C605   1.422       .  A
C605        C606   1.403       .  A
C605        N612   1.437       .  S
C606        C607   1.385       .  A
C606        H611   1.085       .  S
C607        C608   1.395       .  A
C608        N609   1.432       .  S
N609        H613   1.045       .  S
N609        H614   1.044       .  S
N612        H615   1.046       .  S
N612        H616   1.045       .  S
C617        C618   1.425       .  A
C617        C622   1.413       .  A
C617        H624   1.083       .  S
C618        C619   1.441       .  A
C619        C620   1.418       .  A
C619        N626   1.430       .  S
C620        C621   1.401       .  A
C620        H625   1.082       .  S
C621        C622   1.411       .  A
C622        N623   1.432       .  S
N623        H627   1.046       .  S
N623        H628   1.046       .  S
N626        H629   1.046       .  S
N626        H630   1.046       .  S
C631        C632   1.411   1_655  A
C631        C636   1.429       .  A
C631        H638   1.083       .  S
C632        C633   1.422       .  A
C633        C634   1.431   1_455  A
C633        N640   1.430       .  S
C634        C635   1.431       .  A
C634        H639   1.056       .  S
C635        C636   1.453       .  A
C636        N637   1.434       .  S
N637        H641   1.046       .  S
N637        H642   1.046       .  S
N640        H643   1.044       .  S
N640        H644   1.037       .  S
C645        C646   1.409   1_455  A
C645        C650   1.428   1_455  A
C645        H652   1.084       .  S
C646        C647   1.398       .  A
C647        C648   1.424       .  A
C647        N654   1.438       .  S
C648        C649   1.446       .  A
C648        H653   1.071       .  S
C649        C650   1.453       .  A
C650        N651   1.441       .  S
N651        H655   1.046       .  S
N651        H656   1.035       .  S
N654        H657   1.045       .  S
N654        H658   1.045       .  S
C659        C660   1.427       .  A
C659        C664   1.428       .  A
C659        H666   1.080       .  S
C660        C661   1.431       .  A
C661        C662   1.429       .  A
C661        N668   1.426       .  S
C662        C663   1.412       .  A
C662        H667   1.079       .  S
C663        C664   1.431       .  A
C664        N665   1.431       .  S
N665        H669   1.045       .  S
N665        H670   1.045       .  S
N668        H671   1.046       .  S
N668        H672   1.046       .  S
C673        C674   1.405       .  A
C673        C678   1.429       .  A
C673        H680   1.084       .  S
C674        C675   1.425       .  A
C675        C676   1.428       .  A
C675        N682   1.439       .  S
C676        C677   1.425       .  A
C676        H681   1.077       .  S
C677        C678   1.455       .  A
C678        N679   1.438       .  S
N679        H683   1.046       .  S
N679        H684   1.031       .  S
N682        H685   1.046       .  S
N682        H686   1.046       .  S
C687        C688   1.430       .  A
C687        C692   1.440   1_565  A
C687        H694   1.083       .  S
C688        C689   1.432       .  A
C689        C690   1.443   1_565  A
C689        N696   1.428       .  S
C690        C691   1.420       .  A
C690        H695   1.082       .  S
C691        C692   1.424       .  A
C692        N693   1.438       .  S
N693        H697   1.045       .  S
N693        H698   1.045       .  S
N696        H699   1.045       .  S
N696        H700   1.043       .  S
C701        C702   1.411       .  A
C701        C706   1.415       .  A
C701        H708   1.078       .  S
C702        C703   1.453       .  A
C703        C704   1.448       .  A
C703        N710   1.430       .  S
C704        C705   1.419       .  A
C704        H709   1.082   1_565  S
C705        C706   1.442       .  A
C706        N707   1.423       .  S
N707        H711   1.040       .  S
N707        H712   1.042       .  S
N710        H713   1.042   1_565  S
N710        H714   1.040       .  S
C715        C716   1.403       .  A
C715        C720   1.411       .  A
C715        H722   1.077       .  S
C716        C717   1.460       .  A
C717        C718   1.464       .  A
C717        N724   1.434       .  S
C718        C719   1.426       .  A
C718        H723   1.083       .  S
C719        C720   1.442       .  A
C720        N721   1.412       .  S
N721        H725   1.037       .  S
N721        H726   1.043       .  S
N724        H727   1.039       .  S
N724        H728   1.045       .  S
C729        C730   1.418       .  A
C729        C734   1.449       .  A
C729        H736   1.081       .  S
C730        C731   1.440       .  A
C731        C732   1.425       .  A
C731        N738   1.434       .  S
C732        C733   1.415       .  A
C732        H737   1.082       .  S
C733        C734   1.437       .  A
C734        N735   1.430       .  S
N735        H739   1.042       .  S
N735        H740   1.046       .  S
N738        H741   1.046       .  S
N738        H742   1.043       .  S
C743        C744   1.412       .  A
C743        C748   1.422       .  A
C743        H750   1.082       .  S
C744        C745   1.443       .  A
C745        C746   1.436       .  A
C745        N752   1.431       .  S
C746        C747   1.408       .  A
C746        H751   1.083       .  S
C747        C748   1.435       .  A
C748        N749   1.438       .  S
N749        H753   1.045       .  S
N749        H754   1.041   1_556  S
N752        H755   1.046       .  S
N752        H756   1.046       .  S
C757        C758   1.420       .  A
C757        C762   1.420       .  A
C757        H764   1.082       .  S
C758        C759   1.422       .  A
C759        C760   1.440       .  A
C759        N766   1.430       .  S
C760        C761   1.436       .  A
C760        H765   1.083       .  S
C761        C762   1.432       .  A
C762        N763   1.430       .  S
N763        H767   1.045       .  S
N763        H768   1.046       .  S
N766        H769   1.045       .  S
N766        H770   1.045       .  S
C771        C772   1.419       .  A
C771        C776   1.432       .  A
C771        H778   1.080       .  S
C772        C773   1.433       .  A
C773        C774   1.415       .  A
C773        N780   1.430       .  S
C774        C775   1.404       .  A
C774        H779   1.083       .  S
C775        C776   1.428       .  A
C776        N777   1.437       .  S
N777        H781   1.046       .  S
N777        H782   1.046       .  S
N780        H783   1.046       .  S
N780        H784   1.046       .  S
C785        C786   1.388   1_556  A
C785        C790   1.365       .  A
C785        H792   1.077       .  S
C786        C787   1.404       .  A
C787        C788   1.387       .  A
C787        N794   1.443       .  S
C788        C789   1.397   1_554  A
C788        H793   1.082       .  S
C789        C790   1.409       .  A
C790        N791   1.443       .  S
N791        H795   1.040       .  S
N791        H796   1.044       .  S
N794        H797   1.043       .  S
N794        H798   1.035       .  S
C799        C800   1.392       .  A
C799        C804   1.382   1_545  A
C799        H806   1.086   1_545  S
C800        C801   1.387       .  A
C801        C802   1.369       .  A
C801        N808   1.425       .  S
C802        C803   1.393       .  A
C802        H807   1.085       .  S
C803        C804   1.412   1_545  A
C804        N805   1.437       .  S
N805        H809   1.040       .  S
N805        H810   1.045       .  S
N808        H811   1.046       .  S
N808        H812   1.045       .  S
C813        C814   1.409       .  A
C813        C818   1.428       .  A
C813        H820   1.083       .  S
C814        C815   1.433       .  A
C815        C816   1.422       .  A
C815        N822   1.432       .  S
C816        C817   1.418       .  A
C816        H821   1.077       .  S
C817        C818   1.436       .  A
C818        N819   1.429       .  S
N819        H823   1.046       .  S
N819        H824   1.046       .  S
N822        H825   1.045       .  S
N822        H826   1.044       .  S
C827        C828   1.431       .  A
C827        C832   1.439   1_565  A
C827        H834   1.083   1_554  S
C828        C829   1.427   1_565  A
C829        C830   1.445       .  A
C829        N836   1.433       .  S
C830        C831   1.443       .  A
C830        H835   1.080       .  S
C831        C832   1.423       .  A
C832        N833   1.431   1_545  S
N833        H837   1.045       .  S
N833        H838   1.046   1_564  S
N836        H839   1.041   1_545  S
N836        H840   1.046   1_545  S
C841        C842   1.394       .  A
C841        C846   1.373       .  A
C841        H848   1.083       .  S
C842        C843   1.382       .  A
C843        C844   1.359       .  A
C843        N850   1.442       .  S
C844        C845   1.402       .  A
C844        H849   1.083       .  S
C845        C846   1.401       .  A
C846        N847   1.439       .  S
N847        H851   1.046       .  S
N847        H852   1.045       .  S
N850        H853   1.047       .  S
N850        H854   1.039       .  S
C855        C856   1.421       .  A
C855        C860   1.431   1_554  A
C855        H862   1.083       .  S
C856        C857   1.440       .  A
C857        C858   1.419       .  A
C857        N864   1.432       .  S
C858        C859   1.400   1_554  A
C858        H863   1.084       .  S
C859        C860   1.416       .  A
C860        N861   1.435       .  S
N861        H865   1.045       .  S
N861        H866   1.046       .  S
N864        H867   1.046       .  S
N864        H868   1.045       .  S
C869        C870   1.400       .  A
C869        C874   1.398   1_565  A
C869        H876   1.085       .  S
C870        C871   1.408   1_565  A
C871        C872   1.409       .  A
C871        N878   1.438       .  S
C872        C873   1.421       .  A
C872        H877   1.078       .  S
C873        C874   1.427       .  A
C874        N875   1.434       .  S
N875        H879   1.046   1_545  S
N875        H880   1.046       .  S
N878        H881   1.045   1_545  S
N878        H882   1.046       .  S
C883        C884   1.397       .  A
C883        C888   1.390   1_565  A
C883        H890   1.077       .  S
C884        C885   1.417   1_556  A
C885        C886   1.385   1_565  A
C885        N892   1.440       .  S
C886        C887   1.397   1_554  A
C886        H891   1.075       .  S
C887        C888   1.413       .  A
C888        N889   1.441       .  S
N889        H893   1.045       .  S
N889        H894   1.038       .  S
N892        H895   1.045       .  S
N892        H896   1.045       .  S
C897        C898   1.416       .  A
C897        C902   1.412       .  A
C897        H904   1.075       .  S
C898        C899   1.443       .  A
C899        C900   1.411       .  A
C899        N906   1.420       .  S
C900        C901   1.394       .  A
C900        H905   1.081       .  S
C901        C902   1.403       .  A
C902        N903   1.422       .  S
N903        H907   1.045       .  S
N903        H908   1.044       .  S
N906        H909   1.040       .  S
N906        H910   1.036       .  S
C911        C912   1.413   1_556  A
C911        C916   1.407       .  A
C911        H918   1.079       .  S
C912        C913   1.446       .  A
C913        C914   1.408       .  A
C913        N920   1.427       .  S
C914        C915   1.390   1_554  A
C914        H919   1.082       .  S
C915        C916   1.400       .  A
C916        N917   1.428       .  S
N917        H921   1.041       .  S
N917        H922   1.038       .  S
N920        H923   1.044       .  S
N920        H924   1.047       .  S
C925        C926   1.401       .  A
C925        C930   1.418       .  A
C925        H932   1.084       .  S
C926        C927   1.418       .  A
C927        C928   1.399       .  A
C927        N934   1.434       .  S
C928        C929   1.415       .  A
C928        H933   1.075       .  S
C929        C930   1.449       .  A
C930        N931   1.431       .  S
N931        H935   1.042       .  S
N931        H936   1.041       .  S
N934        H937   1.046       .  S
N934        H938   1.046       .  S
C939        C940   1.410       .  A
C939        C944   1.427       .  A
C939        H946   1.079       .  S
C940        C941   1.442       .  A
C941        C942   1.420       .  A
C941        N948   1.429       .  S
C942        C943   1.399       .  A
C942        H947   1.083   1_455  S
C943        C944   1.435       .  A
C944        N945   1.438   1_554  S
N945        H949   1.046       .  S
N945        H950   1.046       .  S
N948        H951   1.046       .  S
N948        H952   1.046   1_455  S
C953        C954   1.395       .  A
C953        C958   1.368       .  A
C953        H960   1.084       .  S
C954        C955   1.393       .  A
C955        C956   1.369       .  A
C955        N962   1.444       .  S
C956        C957   1.403       .  A
C956        H961   1.085       .  S
C957        C958   1.394       .  A
C958        N959   1.436       .  S
N959        H963   1.045       .  S
N959        H964   1.044       .  S
N962        H965   1.045       .  S
N962        H966   1.044       .  S
C967        C968   1.417       .  A
C967        C972   1.433       .  A
C967        H974   1.084   1_554  S
C968        C969   1.430       .  A
C969        C970   1.436       .  A
C969        N976   1.436       .  S
C970        C971   1.429       .  A
C970        H975   1.077       .  S
C971        C972   1.429       .  A
C972        N973   1.431       .  S
N973        H977   1.044       .  S
N973        H978   1.046   1_554  S
N976        H979   1.039       .  S
N976        H980   1.046       .  S
C981        C982   1.421       .  A
C981        C986   1.447   1_655  A
C981        H988   1.083       .  S
C982        C983   1.435   1_655  A
C983        C984   1.445       .  A
C983        N990   1.437       .  S
C984        C985   1.435       .  A
C984        H989   1.079       .  S
C985        C986   1.451       .  A
C986        N987   1.436       .  S
N987        H991   1.045   1_455  S
N987        H992   1.037       .  S
N990        H993   1.041       .  S
N990        H994   1.046       .  S
C995        C996   1.387       .  A
C995       C1000   1.367   1_554  A
C995       H1002   1.086   1_554  S
C996        C997   1.399   1_655  A
C997        C998   1.363       .  A
C997       N1004   1.441       .  S
C998        C999   1.391   1_554  A
C998       H1003   1.079       .  S
C999       C1000   1.404   1_455  A
C1000      N1001   1.441       .  S
N1001      H1005   1.046       .  S
N1001      H1006   1.043       .  S
N1004      H1007   1.043   1_455  S
N1004      H1008   1.043       .  S
C1009      C1010   1.391       .  A
C1009      C1014   1.376   1_565  A
C1009      H1016   1.083       .  S
C1010      C1011   1.399       .  A
C1011      C1012   1.383       .  A
C1011      N1018   1.437       .  S
C1012      C1013   1.403   1_565  A
C1012      H1017   1.077       .  S
C1013      C1014   1.388       .  A
C1014      N1015   1.442       .  S
N1015      H1019   1.043       .  S
N1015      H1020   1.044       .  S
N1018      H1021   1.044       .  S
N1018      H1022   1.045       .  S
C1023      C1024   1.400       .  A
C1023      C1028   1.370       .  A
C1023      H1030   1.086       .  S
C1024      C1025   1.388   1_455  A
C1025      C1026   1.374       .  A
C1025      N1032   1.439       .  S
C1026      C1027   1.398       .  A
C1026      H1031   1.084       .  S
C1027      C1028   1.389   1_655  A
C1028      N1029   1.442       .  S
N1029      H1033   1.046       .  S
N1029      H1034   1.042       .  S
N1032      H1035   1.045       .  S
N1032      H1036   1.045       .  S
C1037      C1038   1.404       .  A
C1037      C1042   1.425       .  A
C1037      H1044   1.084       .  S
C1038      C1039   1.429       .  A
C1039      C1040   1.429       .  A
C1039      N1046   1.438       .  S
C1040      C1041   1.424       .  A
C1040      H1045   1.083       .  S
C1041      C1042   1.446       .  A
C1042      N1043   1.430       .  S
N1043      H1047   1.046       .  S
N1043      H1048   1.046       .  S
N1046      H1049   1.040       .  S
N1046      H1050   1.046       .  S
C1051      C1052   1.411   1_455  A
C1051      C1056   1.421       .  A
C1051      H1058   1.080       .  S
C1052      C1053   1.412   1_565  A
C1053      C1054   1.421   1_655  A
C1053      N1060   1.438       .  S
C1054      C1055   1.435       .  A
C1054      H1059   1.080       .  S
C1055      C1056   1.433   1_545  A
C1056      N1057   1.438       .  S
N1057      H1061   1.044       .  S
N1057      H1062   1.035       .  S
N1060      H1063   1.043   1_545  S
N1060      H1064   1.046   1_545  S
C1065      C1066   1.423       .  A
C1065      C1070   1.394       .  A
C1065      H1072   1.071       .  S
C1066      C1067   1.425       .  A
C1067      C1068   1.403       .  A
C1067      N1074   1.424       .  S
C1068      C1069   1.395       .  A
C1068      H1073   1.083       .  S
C1069      C1070   1.385       .  A
C1070      N1071   1.429       .  S
N1071      H1075   1.045       .  S
N1071      H1076   1.046       .  S
N1074      H1077   1.043       .  S
N1074      H1078   1.036       .  S
C1079      C1080   1.426       .  A
C1079      C1084   1.439       .  A
C1079      H1086   1.080   1_455  S
C1080      C1081   1.421       .  A
C1081      C1082   1.439       .  A
C1081      N1088   1.431       .  S
C1082      C1083   1.439       .  A
C1082      H1087   1.078       .  S
C1083      C1084   1.433       .  A
C1084      N1085   1.433       .  S
N1085      H1089   1.045   1_455  S
N1085      H1090   1.041       .  S
N1088      H1091   1.040       .  S
N1088      H1092   1.046       .  S
C1093      C1094   1.409       .  A
C1093      C1098   1.414       .  A
C1093      H1100   1.066       .  S
C1094      C1095   1.446       .  A
C1095      C1096   1.418   1_545  A
C1095      N1102   1.436       .  S
C1096      C1097   1.405       .  A
C1096      H1101   1.084       .  S
C1097      C1098   1.414   1_565  A
C1098      N1099   1.426       .  S
N1099      H1103   1.046       .  S
N1099      H1104   1.045       .  S
N1102      H1105   1.036       .  S
N1102      H1106   1.045   1_545  S
C1107      C1108   1.398   1_545  A
C1107      C1112   1.387   1_655  A
C1107      H1114   1.081       .  S
C1108      C1109   1.411       .  A
C1109      C1110   1.378       .  A
C1109      N1116   1.435       .  S
C1110      C1111   1.391   1_655  A
C1110      H1115   1.078       .  S
C1111      C1112   1.420   1_565  A
C1112      N1113   1.441       .  S
N1113      H1117   1.044       .  S
N1113      H1118   1.040       .  S
N1116      H1119   1.037       .  S
N1116      H1120   1.043       .  S
C1121      C1122   1.414       .  A
C1121      C1126   1.420       .  A
C1121      H1128   1.080       .  S
C1122      C1123   1.451       .  A
C1123      C1124   1.436       .  A
C1123      N1130   1.436       .  S
C1124      C1125   1.411       .  A
C1124      H1129   1.080       .  S
C1125      C1126   1.436       .  A
C1126      N1127   1.428   1_556  S
N1127      H1131   1.044       .  S
N1127      H1132   1.045       .  S
N1130      H1133   1.034       .  S
N1130      H1134   1.045       .  S
C1135      C1136   1.423       .  A
C1135      C1140   1.426       .  A
C1135      H1142   1.077       .  S
C1136      C1137   1.436       .  A
C1137      C1138   1.435       .  A
C1137      N1144   1.433       .  S
C1138      C1139   1.414       .  A
C1138      H1143   1.083       .  S
C1139      C1140   1.424       .  A
C1140      N1141   1.438       .  S
N1141      H1145   1.045       .  S
N1141      H1146   1.045       .  S
N1144      H1147   1.046       .  S
N1144      H1148   1.045       .  S
C1149      C1150   1.416       .  A
C1149      C1154   1.415       .  A
C1149      H1156   1.082       .  S
C1150      C1151   1.437       .  A
C1151      C1152   1.427       .  A
C1151      N1158   1.429       .  S
C1152      C1153   1.403       .  A
C1152      H1157   1.074       .  S
C1153      C1154   1.418       .  A
C1154      N1155   1.432       .  S
N1155      H1159   1.045       .  S
N1155      H1160   1.045       .  S
N1158      H1161   1.043       .  S
N1158      H1162   1.045       .  S
C1163      C1164   1.421       .  A
C1163      C1168   1.422       .  A
C1163      H1170   1.079       .  S
C1164      C1165   1.434       .  A
C1165      C1166   1.433       .  A
C1165      N1172   1.430       .  S
C1166      C1167   1.413       .  A
C1166      H1171   1.083   1_556  S
C1167      C1168   1.427       .  A
C1168      N1169   1.438   1_655  S
N1169      H1173   1.045       .  S
N1169      H1174   1.046   1_455  S
N1172      H1175   1.046   1_556  S
N1172      H1176   1.045       .  S
