geometry optimzed in LAMMPS
_audit_creation_date              2020-11-30 
_audit_creation_method            'lammps2cif' 
_symmetry_space_group_name_H-M    'P1' 
_symmetry_Int_Tables_number       1 
_symmetry_cell_setting            triclinic 
loop_ 
_symmetry_equiv_pos_as_xyz 
  x,y,z 
_cell_length_a                    29.324355765158963 
_cell_length_b                    32.63114442521555 
_cell_length_c                    23.761406186079927 
_cell_angle_alpha                 88.61202193394733 
_cell_angle_beta                  75.50307351634505 
_cell_angle_gamma                 123.42367967294375 
loop_ 
_atom_site_label 
_atom_site_type_symbol 
_atom_site_fract_x 
_atom_site_fract_y 
_atom_site_fract_z 
_atom_site_charge 
C1          C  0.21692573  0.35643267  0.32858956     0.01540
C2          C  0.34839057  0.16556868  0.17685155     0.01540
C3          C  0.23324083  0.36051449  0.15899674     0.01540
C4          C  0.33636271  0.16947680  0.34485088     0.01420
O5          O  0.03144929  0.43154057  0.50534755    -0.51380
O6          O  0.32855925  0.38001333  0.95865183    -0.59290
C7          C  0.32042416  0.40883687  0.98804366     1.01540
O8          O  0.18360332  0.47413994  0.11099383    -0.64480
O9          O  0.15187166  0.48666632  0.50537750    -0.62420
C10         C  0.40959608  0.10277077  0.38848835     0.93600
O11         O  0.38401276  0.32943633  0.39336730    -0.64570
C12         C  0.38596576  0.44317849  0.33297902     1.01170
C13         C  0.40594748  0.30460941  0.39168207     0.94120
Ti14       Ti  0.41355199  0.40002481  0.42005762     1.51160
Ti15       Ti  0.15273070  0.12775667  0.08546617     1.51270
O16         O  0.50167915  0.42358618  0.38739755    -0.58450
O17         O  0.41524854  0.04168514  0.99868696    -0.62450
C18         C  0.24570413  0.11949907  0.51499175     1.01570
O19         O  0.03456471  0.09395800  0.50176767    -0.51470
C20         C  0.96350047  0.14373579  0.07312429     1.01320
Ti21       Ti  0.41388069  0.01213573  0.41945151     1.51020
Ti22       Ti  0.48830780  0.37283601  0.45907691     1.52980
Ti23       Ti  0.07544310  0.41446542  0.05115857     1.49250
O24         O  0.07346887  0.18035416  0.40540692    -0.58160
O25         O  0.45252075  0.13083607  0.40614533    -0.64510
O26         O  0.44589809  0.31566938  0.41322076    -0.64620
O27         O  0.44650819  0.47177741  0.44626944    -0.51390
O28         O  0.06473757  0.45173446  0.12107191    -0.62370
O29         O  0.15474648  0.10421760  0.16806741    -0.59250
O30         O  0.41159137  0.36846110  0.00139434    -0.58470
O31         O  0.09813003  0.21169089  0.48330153    -0.59780
O32         O  0.18189233  0.19852431  0.11267596    -0.64580
O33         O  0.41272848  0.42388346  0.33667774    -0.59260
O34         O  0.11955702  0.05579436  0.05887951    -0.51390
C35         C  0.15867696  0.22247786  0.11638061     0.94120
O36         O  0.50288739  0.07477278  0.38372869    -0.62400
O37         O  0.06630506  0.38165497  0.41108997    -0.59860
O38         O  0.23784554  0.14879850  0.54375765    -0.59250
C39         C  0.10228170  0.38098301  0.43080058     1.01450
C40         C  0.10601023  0.21576936  0.42795673     1.01380
C41         C  0.16077938  0.42719022  0.11504651     0.93460
O42         O  0.23793929  0.08061564  0.54154182    -0.58600
O43         O  0.32846467  0.44814442  0.96237344    -0.58570
C44         C  0.18065403  0.08410276  0.17107118     1.01110
Ti45       Ti  0.15301811  0.01585667  0.08482039     1.51020
O46         O  0.99572478  0.14000265  0.09651530    -0.59850
O47         O  0.40899043  0.48845254  0.33722744    -0.58600
O48         O  0.99779110  0.34515066  0.10083115    -0.58180
O49         O  0.11692550  0.20989097  0.09690183    -0.64740
O50         O  0.46175724  0.31304758  0.02827237    -0.59790
O51         O  0.11878605  0.39849717  0.09656077    -0.64310
O52         O  0.47209750  0.14909995  0.01772981    -0.58090
Ti53       Ti  0.07553987  0.15242784  0.04965090     1.53190
O54         O  0.09981964  0.38069695  0.48481122    -0.58140
O55         O  0.06431679  0.10240075  0.12013525    -0.58490
O56         O  0.15643756  0.03871821  0.16727925    -0.58610
C57         C  0.96103138  0.30937994  0.08193605     1.01460
O58         O  0.38525764  0.05552797  0.39297031    -0.64570
Ti59       Ti  0.49350614  0.11276168  0.45329612     1.49460
O60         O  0.15347811  0.15965680  0.50555496    -0.58530
C61         C  0.36886964  0.14856093  0.35050464    -0.09240
C62         C  0.38768063  0.12636289  0.36418093    -0.10800
C63         C  0.28640304  0.14332322  0.39840133    -0.09240
C64         C  0.26349842  0.13040064  0.45142626    -0.10800
C65         C  0.36761861  0.22184084  0.35056034    -0.09240
C66         C  0.38508439  0.26147303  0.36545294    -0.10800
C67         C  0.20021303  0.30684271  0.15638354    -0.09240
C68         C  0.18065202  0.26649557  0.14213980    -0.10800
C69         C  0.18307596  0.40450198  0.14015686    -0.09240
C70         C  0.20140846  0.38204456  0.15414976    -0.10800
C71         C  0.30356628  0.39762980  0.05124344    -0.09240
C72         C  0.28146003  0.38484753  0.10418488    -0.10800
C73         C  0.41697809  0.14436899  0.10966151    -0.09240
C74         C  0.38055084  0.14881347  0.13919075    -0.10800
C75         C  0.23860384  0.11323965  0.17514797    -0.09240
C76         C  0.28828476  0.13740521  0.17513461    -0.10800
C77         C  0.38130666  0.21966653  0.15152840    -0.09240
C78         C  0.41684319  0.26188511  0.12236613    -0.10800
C79         C  0.34964542  0.15719669  0.23925853    -0.12400
C80         C  0.32267876  0.16651510  0.28675686    -0.27580
H81         H  0.37635865  0.14503840  0.24488130     0.16620
H82         H  0.29619132  0.17892489  0.28104879     0.17190
C83         C  0.15198049  0.26342416  0.39042053    -0.09240
C84         C  0.18729962  0.30537358  0.36156894    -0.10800
C85         C  0.18391299  0.37501525  0.36083103    -0.09240
C86         C  0.14751107  0.37957513  0.39108202    -0.10800
C87         C  0.27837949  0.38803388  0.32742295    -0.09240
C88         C  0.32824885  0.41328230  0.32745075    -0.10800
C89         C  0.20870954  0.35137079  0.26809894    -0.12400
C90         C  0.25024976  0.36958258  0.21499851    -0.27580
H91         H  0.16416427  0.32965168  0.26822603     0.16620
H92         H  0.29541854  0.39124280  0.21196463     0.17190
C93         C  0.21692555  0.35643244  0.82858989     0.01540
C94         C  0.34839078  0.16556908  0.67685122     0.01540
C95         C  0.23324079  0.36051454  0.65899702     0.01540
C96         C  0.33636276  0.16947691  0.84485061     0.01420
O97         O  0.03144892  0.43154028  0.00534761    -0.51380
O98         O  0.32855946  0.38001326  0.45865222    -0.59290
C99         C  0.32042437  0.40883684  0.48804394     1.01540
O100        O  0.18360347  0.47414016  0.61099410    -0.64480
O101        O  0.15187132  0.48666601  0.00537739    -0.62420
C102        C  0.40959608  0.10277090  0.88848823     0.93600
O103        O  0.38401259  0.32943637  0.89336713    -0.64570
C104        C  0.38596575  0.44317854  0.83297893     1.01170
C105        C  0.40594724  0.30460940  0.89168201     0.94120
Ti106      Ti  0.41355177  0.40002478  0.92005759     1.51160
Ti107      Ti  0.15273086  0.12775690  0.58546623     1.51270
O108        O  0.50167890  0.42358608  0.88739782    -0.58450
O109        O  0.41524876  0.04168518  0.49868703    -0.62450
C110        C  0.24570392  0.11949882  0.01499144     1.01570
O111        O  0.03456426  0.09395767  0.00176802    -0.51470
C112        C  0.96350082  0.14373608  0.57312391     1.01320
Ti113      Ti  0.41388049  0.01213574  0.91945142     1.51020
Ti114      Ti  0.48830730  0.37283576  0.95907718     1.52980
Ti115      Ti  0.07544344  0.41446569  0.55115853     1.49250
O116        O  0.07346852  0.18035390  0.90540726    -0.58160
O117        O  0.45252067  0.13083613  0.90614536    -0.64510
O118        O  0.44589771  0.31566925  0.91322087    -0.64620
O119        O  0.44650792  0.47177735  0.94626948    -0.51390
O120        O  0.06473778  0.45173464  0.62107194    -0.62370
O121        O  0.15474636  0.10421771  0.66806757    -0.59250
O122        O  0.41159189  0.36846130  0.50139427    -0.58470
O123        O  0.09812963  0.21169064  0.98330185    -0.59780
O124        O  0.18189237  0.19852449  0.61267610    -0.64580
O125        O  0.41272865  0.42388369  0.83667761    -0.59260
O126        O  0.11955730  0.05579462  0.55887953    -0.51390
C127        C  0.15867699  0.22247803  0.61638066     0.94120
O128        O  0.50288722  0.07477274  0.88372864    -0.62400
O129        O  0.06630486  0.38165476  0.91109003    -0.59860
O130        O  0.23784532  0.14879825  0.04375736    -0.59250
C131        C  0.10228141  0.38098272  0.93080074     1.01450
C132        C  0.10600988  0.21576911  0.92795706     1.01380
C133        C  0.16077959  0.42719046  0.61504666     0.93460
O134        O  0.23793903  0.08061535  0.04154148    -0.58600
O135        O  0.32846487  0.44814436  0.46237361    -0.58570
C136        C  0.18065405  0.08410300  0.67107133     1.01110
Ti137      Ti  0.15301835  0.01585692  0.58482056     1.51020
O138        O  0.99572501  0.14000283  0.59651500    -0.59850
O139        O  0.40899029  0.48845258  0.83722733    -0.58600
O140        O  0.99779145  0.34515086  0.60083104    -0.58180
O141        O  0.11692564  0.20989118  0.59690172    -0.64740
O142        O  0.46175792  0.31304791  0.52827204    -0.59790
O143        O  0.11878638  0.39849744  0.59656075    -0.64310
O144        O  0.47209757  0.14910006  0.51772966    -0.58090
Ti145      Ti  0.07554017  0.15242809  0.54965068     1.53190
O146        O  0.09981916  0.38069651  0.98481142    -0.58140
O147        O  0.06431695  0.10240096  0.62013508    -0.58490
O148        O  0.15643766  0.03871844  0.66727946    -0.58610
C149        C  0.96103170  0.30938016  0.58193593     1.01460
O150        O  0.38525761  0.05552810  0.89297013    -0.64570
Ti151      Ti  0.49350599  0.11276160  0.95329613     1.49460
O152        O  0.15347775  0.15965650  0.00555500    -0.58530
C153        C  0.36886978  0.14856112  0.85050432    -0.09240
C154        C  0.38768076  0.12636310  0.86418069    -0.10800
C155        C  0.28640307  0.14332321  0.89840103    -0.09240
C156        C  0.26349839  0.13040052  0.95142595    -0.10800
C157        C  0.36761853  0.22184091  0.85056015    -0.09240
C158        C  0.38508423  0.26147308  0.86545278    -0.10800
C159        C  0.20021292  0.30684278  0.65638376    -0.09240
C160        C  0.18065194  0.26649568  0.64213995    -0.10800
C161        C  0.18307609  0.40450218  0.64015711    -0.09240
C162        C  0.20140852  0.38204472  0.65415005    -0.10800
C163        C  0.30356630  0.39762978  0.55124374    -0.09240
C164        C  0.28146001  0.38484756  0.60418517    -0.10800
C165        C  0.41697809  0.14436919  0.60966125    -0.09240
C166        C  0.38055091  0.14881377  0.63919042    -0.10800
C167        C  0.23860400  0.11324009  0.67514778    -0.09240
C168        C  0.28828497  0.13740572  0.67513428    -0.10800
C169        C  0.38130707  0.21966697  0.65152810    -0.09240
C170        C  0.41684377  0.26188555  0.62236586    -0.10800
C171        C  0.34964559  0.15719699  0.73925819    -0.12400
C172        C  0.32267884  0.16651526  0.78675659    -0.27580
H173        H  0.37635887  0.14503873  0.74488092     0.16620
H174        H  0.29619135  0.17892501  0.78104856     0.17190
C175        C  0.15198019  0.26342390  0.89042085    -0.09240
C176        C  0.18729938  0.30537333  0.86156926    -0.10800
C177        C  0.18391281  0.37501503  0.86083134    -0.09240
C178        C  0.14751084  0.37957489  0.89108225    -0.10800
C179        C  0.27837931  0.38803364  0.82742331    -0.09240
C180        C  0.32824872  0.41328215  0.82745098    -0.10800
C181        C  0.20870942  0.35137064  0.76809925    -0.12400
C182        C  0.25024967  0.36958252  0.71499883    -0.27580
H183        H  0.16416415  0.32965153  0.76822629     0.16620
H184        H  0.29541845  0.39124273  0.71196498     0.17190
C185        C  0.21692567  0.85643299  0.32858787     0.01540
C186        C  0.34839124  0.66556759  0.17685142     0.01540
C187        C  0.23324305  0.86051597  0.15899452     0.01540
C188        C  0.33636249  0.66947557  0.34485092     0.01420
O189        O  0.03144903  0.93154044  0.50534712    -0.51380
O190        O  0.32855762  0.88001249  0.95865017    -0.59290
C191        C  0.32042319  0.90883647  0.98804166     1.01540
O192        O  0.18360435  0.97414075  0.11099207    -0.64480
O193        O  0.15187161  0.98666698  0.50537653    -0.62420
C194        C  0.40959737  0.60277128  0.38848906     0.93600
O195        O  0.38401136  0.82943541  0.39336643    -0.64570
C196        C  0.38596559  0.94317842  0.33297761     1.01170
C197        C  0.40594587  0.80460834  0.39168169     0.94120
Ti198      Ti  0.41355047  0.90002387  0.42005680     1.51160
Ti199      Ti  0.15273230  0.62775727  0.08546538     1.51270
O200        O  0.50167758  0.92358512  0.38739733    -0.58450
O201        O  0.41525110  0.54168645  0.99868753    -0.62450
C202        C  0.24570470  0.61949828  0.51499184     1.01570
O203        O  0.03456593  0.59395851  0.50176716    -0.51470
C204        C  0.96350221  0.64373669  0.07312406     1.01320
Ti205      Ti  0.41388201  0.51213636  0.41945258     1.51020
Ti206      Ti  0.48830588  0.87283489  0.45907686     1.52980
Ti207      Ti  0.07544359  0.91446575  0.05115755     1.49250
O208        O  0.07346909  0.68035428  0.40540618    -0.58160
O209        O  0.45252246  0.63083683  0.40614534    -0.64510
O210        O  0.44589624  0.81566822  0.41322073    -0.64620
O211        O  0.44650651  0.97177650  0.44626876    -0.51390
O212        O  0.06473793  0.95173438  0.12107140    -0.62370
O213        O  0.15474847  0.60421885  0.16806683    -0.59250
O214        O  0.41158928  0.86846001  0.00139385    -0.58470
O215        O  0.09813203  0.71169147  0.48330000    -0.59780
O216        O  0.18189466  0.69852535  0.11267431    -0.64580
O217        O  0.41272775  0.92388290  0.33667659    -0.59260
O218        O  0.11955783  0.55579457  0.05887942    -0.51390
C219        C  0.15867952  0.72247909  0.11637868     0.94120
O220        O  0.50288871  0.57477330  0.38372855    -0.62400
O221        O  0.06630392  0.88165405  0.41108957    -0.59860
O222        O  0.23784679  0.64879839  0.54375689    -0.59250
C223        C  0.10228139  0.88098292  0.43079946     1.01450
C224        C  0.10601103  0.71576967  0.42795540     1.01380
C225        C  0.16078077  0.92719110  0.11504448     0.93460
O226        O  0.23793949  0.58061497  0.54154281    -0.58600
O227        O  0.32846309  0.94814350  0.96237084    -0.58570
C228        C  0.18065467  0.58410281  0.17107114     1.01110
Ti229      Ti  0.15301799  0.51585633  0.08482114     1.51020
O230        O  0.99572700  0.64000396  0.09651462    -0.59850
O231        O  0.40899082  0.98845257  0.33722586    -0.58600
O232        O  0.99779223  0.84515065  0.10083031    -0.58180
O233        O  0.11692796  0.70989213  0.09690008    -0.64740
O234        O  0.46175511  0.81304658  0.02827266    -0.59790
O235        O  0.11878732  0.89849791  0.09655898    -0.64310
O236        O  0.47210048  0.64910161  0.01772911    -0.58090
Ti237      Ti  0.07554173  0.65242864  0.04964984     1.53190
O238        O  0.09982062  0.88069797  0.48480968    -0.58140
O239        O  0.06431861  0.60240186  0.12013461    -0.58490
O240        O  0.15643675  0.53871803  0.16727989    -0.58610
C241        C  0.96103175  0.80937994  0.08193588     1.01460
O242        O  0.38525865  0.55552841  0.39297177    -0.64570
Ti243      Ti  0.49350838  0.61276277  0.45329574     1.49460
O244        O  0.15347955  0.65965697  0.50555394    -0.58530
C245        C  0.36887035  0.64856067  0.35050479    -0.09240
C246        C  0.38768178  0.62636317  0.36418145    -0.10800
C247        C  0.28640280  0.64332144  0.39840135    -0.09240
C248        C  0.26349839  0.63039890  0.45142632    -0.10800
C249        C  0.36761745  0.72183963  0.35056035    -0.09240
C250        C  0.38508283  0.76147186  0.36545273    -0.10800
C251        C  0.20021568  0.80684423  0.15638100    -0.09240
C252        C  0.18065486  0.76649705  0.14213741    -0.10800
C253        C  0.18307781  0.90450307  0.14015435    -0.09240
C254        C  0.20141051  0.88204582  0.15414718    -0.10800
C255        C  0.30356820  0.89763119  0.05124139    -0.09240
C256        C  0.28146266  0.88484936  0.10418295    -0.10800
C257        C  0.41698009  0.64436932  0.10966103    -0.09240
C258        C  0.38055223  0.64881303  0.13919047    -0.10800
C259        C  0.23860457  0.61323865  0.17514771    -0.09240
C260        C  0.28828548  0.63740379  0.17513432    -0.10800
C261        C  0.38130663  0.71966537  0.15152849    -0.09240
C262        C  0.41684253  0.76188400  0.12236618    -0.10800
C263        C  0.34964604  0.65719568  0.23925845    -0.12400
C264        C  0.32267859  0.66651342  0.28675685    -0.27580
H265        H  0.37635989  0.64503808  0.24488122     0.16620
H266        H  0.29619052  0.67892249  0.28104875     0.17190
C267        C  0.15198075  0.76342440  0.39041872    -0.09240
C268        C  0.18729959  0.80537382  0.36156699    -0.10800
C269        C  0.18391251  0.87501525  0.36082926    -0.09240
C270        C  0.14751051  0.87957497  0.39108043    -0.10800
C271        C  0.27837920  0.88803423  0.32742190    -0.09240
C272        C  0.32824853  0.91328256  0.32744976    -0.10800
C273        C  0.20871032  0.85137153  0.26809688    -0.12400
C274        C  0.25025113  0.86958379  0.21499677    -0.27580
H275        H  0.16416523  0.82965233  0.26822335     0.16620
H276        H  0.29541977  0.89124413  0.21196349     0.17190
C277        C  0.21692547  0.85643275  0.82858819     0.01540
C278        C  0.34839143  0.66556798  0.67685107     0.01540
C279        C  0.23324301  0.86051601  0.65899478     0.01540
C280        C  0.33636258  0.66947567  0.84485063     0.01420
O281        O  0.03144864  0.93154012  0.00534717    -0.51380
O282        O  0.32855789  0.88001244  0.45865054    -0.59290
C283        C  0.32042344  0.90883645  0.48804193     1.01540
O284        O  0.18360453  0.97414098  0.61099234    -0.64480
O285        O  0.15187122  0.98666665  0.00537642    -0.62420
C286        C  0.40959742  0.60277143  0.88848895     0.93600
O287        O  0.38401115  0.82943543  0.89336628    -0.64570
C288        C  0.38596555  0.94317845  0.83297752     1.01170
C289        C  0.40594559  0.80460831  0.89168164     0.94120
Ti290      Ti  0.41355020  0.90002382  0.92005678     1.51160
Ti291      Ti  0.15273242  0.62775748  0.58546547     1.51270
O292        O  0.50167729  0.92358501  0.88739763    -0.58450
O293        O  0.41525128  0.54168647  0.49868759    -0.62450
C294        C  0.24570453  0.61949804  0.01499151     1.01570
O295        O  0.03456552  0.59395819  0.00176749    -0.51470
C296        C  0.96350251  0.64373698  0.57312369     1.01320
Ti297      Ti  0.41388186  0.51213639  0.91945248     1.51020
Ti298      Ti  0.48830533  0.87283463  0.95907716     1.52980
Ti299      Ti  0.07544396  0.91446604  0.55115752     1.49250
O300        O  0.07346876  0.68035401  0.90540650    -0.58160
O301        O  0.45252243  0.63083691  0.90614539    -0.64510
O302        O  0.44589582  0.81566808  0.91322087    -0.64620
O303        O  0.44650618  0.97177643  0.94626882    -0.51390
O304        O  0.06473817  0.95173459  0.62107143    -0.62370
O305        O  0.15474830  0.60421893  0.66806701    -0.59250
O306        O  0.41158986  0.86846023  0.50139375    -0.58470
O307        O  0.09813165  0.71169121  0.98330029    -0.59780
O308        O  0.18189464  0.69852550  0.61267447    -0.64580
O309        O  0.41272788  0.92388310  0.83667648    -0.59260
O310        O  0.11955806  0.55579481  0.55887947    -0.51390
C311        C  0.15867951  0.72247924  0.61637875     0.94120
O312        O  0.50288858  0.57477329  0.88372851    -0.62400
O313        O  0.06630367  0.88165380  0.91108963    -0.59860
O314        O  0.23784663  0.64879816  0.04375657    -0.59250
C315        C  0.10228106  0.88098261  0.93079959     1.01450
C316        C  0.10601069  0.71576941  0.92795570     1.01380
C317        C  0.16078100  0.92719135  0.61504464     0.93460
O318        O  0.23793928  0.58061471  0.04154247    -0.58600
O319        O  0.32846334  0.94814345  0.46237101    -0.58570
C320        C  0.18065466  0.58410304  0.67107130     1.01110
Ti321      Ti  0.15301819  0.51585656  0.58482131     1.51020
O322        O  0.99572719  0.64000414  0.59651433    -0.59850
O323        O  0.40899064  0.98845259  0.83722574    -0.58600
O324        O  0.99779259  0.84515088  0.60083022    -0.58180
O325        O  0.11692805  0.70989233  0.59689999    -0.64740
O326        O  0.46175582  0.81304691  0.52827230    -0.59790
O327        O  0.11878766  0.89849820  0.59655898    -0.64310
O328        O  0.47210053  0.64910172  0.51772893    -0.58090
Ti329      Ti  0.07554198  0.65242889  0.54964964     1.53190
O330        O  0.09982013  0.88069753  0.98480986    -0.58140
O331        O  0.06431871  0.60240206  0.62013446    -0.58490
O332        O  0.15643683  0.53871825  0.66728010    -0.58610
C333        C  0.96103210  0.80938018  0.58193578     1.01460
O334        O  0.38525867  0.55552856  0.89297158    -0.64570
Ti335      Ti  0.49350827  0.61276271  0.95329577     1.49460
O336        O  0.15347923  0.65965669  0.00555395    -0.58530
C337        C  0.36887055  0.64856088  0.85050443    -0.09240
C338        C  0.38768198  0.62636340  0.86418119    -0.10800
C339        C  0.28640287  0.64332142  0.89840104    -0.09240
C340        C  0.26349840  0.63039877  0.95142600    -0.10800
C341        C  0.36761739  0.72183970  0.85056015    -0.09240
C342        C  0.38508264  0.76147190  0.86545258    -0.10800
C343        C  0.20021556  0.80684430  0.65638122    -0.09240
C344        C  0.18065475  0.76649714  0.64213757    -0.10800
C345        C  0.18307797  0.90450330  0.64015460    -0.09240
C346        C  0.20141058  0.88204598  0.65414746    -0.10800
C347        C  0.30356824  0.89763116  0.55124167    -0.09240
C348        C  0.28146264  0.88484937  0.60418324    -0.10800
C349        C  0.41698005  0.64436950  0.60966074    -0.09240
C350        C  0.38055226  0.64881331  0.63919011    -0.10800
C351        C  0.23860470  0.61323908  0.67514752    -0.09240
C352        C  0.28828566  0.63740429  0.67513399    -0.10800
C353        C  0.38130704  0.71966581  0.65152817    -0.09240
C354        C  0.41684312  0.76188444  0.62236588    -0.10800
C355        C  0.34964621  0.65719597  0.73925809    -0.12400
C356        C  0.32267869  0.66651359  0.78675655    -0.27580
H357        H  0.37636011  0.64503840  0.74488080     0.16620
H358        H  0.29619055  0.67892261  0.78104852     0.17190
C359        C  0.15198046  0.76342414  0.89041901    -0.09240
C360        C  0.18729934  0.80537356  0.86156729    -0.10800
C361        C  0.18391229  0.87501501  0.86082955    -0.09240
C362        C  0.14751025  0.87957471  0.89108064    -0.10800
C363        C  0.27837900  0.88803399  0.82742225    -0.09240
C364        C  0.32824837  0.91328239  0.82744998    -0.10800
C365        C  0.20871018  0.85137136  0.76809716    -0.12400
C366        C  0.25025103  0.86958371  0.71499707    -0.27580
H367        H  0.16416510  0.82965218  0.76822359     0.16620
H368        H  0.29541966  0.89124403  0.71196383     0.17190
C369        C  0.71692545  0.35643265  0.32858927     0.01540
C370        C  0.84839042  0.16556760  0.17685118     0.01540
C371        C  0.73324125  0.36051489  0.15899626     0.01540
C372        C  0.83636324  0.16947610  0.34485032     0.01420
O373        O  0.53145011  0.43154172  0.50534723    -0.51380
O374        O  0.82855863  0.38001186  0.95865194    -0.59290
C375        C  0.82042383  0.40883577  0.98804323     1.01540
O376        O  0.68360383  0.47414073  0.11099398    -0.64480
O377        O  0.65187257  0.48666773  0.50537744    -0.62420
C378        C  0.90959733  0.10277073  0.38848765     0.93600
O379        O  0.88401230  0.32943525  0.39336726    -0.64570
C380        C  0.88596549  0.44317762  0.33297882     1.01170
C381        C  0.90594723  0.30460849  0.39168188     0.94120
Ti382      Ti  0.91355140  0.40002370  0.42005762     1.51160
Ti383      Ti  0.65273057  0.12775704  0.08546548     1.51270
O384        O  0.00167859  0.42358518  0.38739765    -0.58450
O385        O  0.91524936  0.04168483  0.99868659    -0.62450
C386        C  0.74570360  0.11949906  0.51499127     1.01570
O387        O  0.53456368  0.09395813  0.50176813    -0.51470
C388        C  0.46350020  0.14373639  0.07312462     1.01320
Ti389      Ti  0.91388177  0.01213566  0.41945120     1.51020
Ti390      Ti  0.98830727  0.37283501  0.45907699     1.52980
Ti391      Ti  0.57544371  0.41446635  0.05115852     1.49250
O392        O  0.57346766  0.18035420  0.40540723    -0.58160
O393        O  0.95252196  0.13083607  0.40614469    -0.64510
O394        O  0.94589783  0.31566850  0.41322060    -0.64620
O395        O  0.94650762  0.47177636  0.44626936    -0.51390
O396        O  0.56473811  0.45173526  0.12107196    -0.62370
O397        O  0.65474733  0.10421878  0.16806663    -0.59250
O398        O  0.91159093  0.36845981  0.00139417    -0.58470
O399        O  0.59812904  0.21169112  0.48330163    -0.59780
O400        O  0.68189267  0.19852495  0.11267473    -0.64580
O401        O  0.91272785  0.42388228  0.33667768    -0.59260
O402        O  0.61955629  0.05579446  0.05887941    -0.51390
C403        C  0.65867718  0.22247841  0.11637973     0.94120
O404        O  0.00288852  0.07477262  0.38372839    -0.62400
O405        O  0.56630537  0.38165562  0.41108984    -0.59860
O406        O  0.73784519  0.14879906  0.54375608    -0.59250
C407        C  0.60228230  0.38098396  0.43080022     1.01450
C408        C  0.60600916  0.21576946  0.42795686     1.01380
C409        C  0.66078003  0.42719105  0.11504637     0.93460
O410        O  0.73793822  0.08061573  0.54154240    -0.58600
O411        O  0.82846425  0.44814307  0.96237238    -0.58570
C412        C  0.68065389  0.08410306  0.17107074     1.01110
Ti413      Ti  0.65301697  0.01585657  0.08482066     1.51020
O414        O  0.49572462  0.14000325  0.09651543    -0.59850
O415        O  0.90899057  0.48845176  0.33722702    -0.58600
O416        O  0.49779174  0.34515155  0.10083109    -0.58180
O417        O  0.61692548  0.20989140  0.09690134    -0.64740
O418        O  0.96175719  0.31304659  0.02827214    -0.59790
O419        O  0.61878675  0.39849805  0.09656054    -0.64310
O420        O  0.97209818  0.14909965  0.01772941    -0.58090
Ti421      Ti  0.57553948  0.15242816  0.04965071     1.53190
O422        O  0.59982088  0.38069854  0.48481066    -0.58140
O423        O  0.56431673  0.10240128  0.12013512    -0.58490
O424        O  0.65643634  0.03871833  0.16727933    -0.58610
C425        C  0.46103172  0.30938091  0.08193617     1.01460
O426        O  0.88525892  0.05552794  0.39296965    -0.64570
Ti427      Ti  0.99350726  0.11276164  0.45329564     1.49460
O428        O  0.65347719  0.15965698  0.50555457    -0.58530
C429        C  0.86887050  0.14856053  0.35050393    -0.09240
C430        C  0.88768180  0.12636276  0.36418018    -0.10800
C431        C  0.78640367  0.14332247  0.39840084    -0.09240
C432        C  0.76349880  0.13040016  0.45142574    -0.10800
C433        C  0.86761892  0.22184014  0.35055974    -0.09240
C434        C  0.88508443  0.26147225  0.36545249    -0.10800
C435        C  0.70021326  0.30684315  0.15638291    -0.09240
C436        C  0.68065229  0.26649609  0.14213897    -0.10800
C437        C  0.68307673  0.40450278  0.14015644    -0.09240
C438        C  0.70140918  0.38204526  0.15414916    -0.10800
C439        C  0.80356666  0.39762958  0.05124302    -0.09240
C440        C  0.78146059  0.38484780  0.10418451    -0.10800
C441        C  0.91697806  0.14436810  0.10966103    -0.09240
C442        C  0.88055067  0.14881242  0.13919025    -0.10800
C443        C  0.73860368  0.11323911  0.17514765    -0.09240
C444        C  0.78828459  0.13740426  0.17513432    -0.10800
C445        C  0.88130651  0.21966546  0.15152811    -0.09240
C446        C  0.91684295  0.26188407  0.12236591    -0.10800
C447        C  0.84964537  0.15719556  0.23925811    -0.12400
C448        C  0.82267905  0.16651424  0.28675643    -0.27580
H449        H  0.87635846  0.14503709  0.24488083     0.16620
H450        H  0.79619166  0.17892410  0.28104841     0.17190
C451        C  0.65197953  0.26342415  0.39042048    -0.09240
C452        C  0.68729889  0.30537350  0.36156874    -0.10800
C453        C  0.68391303  0.37501557  0.36083057    -0.09240
C454        C  0.64751136  0.37957574  0.39108157    -0.10800
C455        C  0.77837916  0.38803352  0.32742287    -0.09240
C456        C  0.82824852  0.41328170  0.32745069    -0.10800
C457        C  0.70870952  0.35137096  0.26809853    -0.12400
C458        C  0.75024990  0.36958270  0.21499821    -0.27580
H459        H  0.66416431  0.32965206  0.26822541     0.16620
H460        H  0.79541862  0.39124272  0.21196453     0.17190
C461        C  0.71692524  0.35643266  0.82858965     0.01540
C462        C  0.84839061  0.16556769  0.67685074     0.01540
C463        C  0.73324119  0.36051525  0.65899659     0.01540
C464        C  0.83636338  0.16947600  0.84484990     0.01420
O465        O  0.53144950  0.43154129  0.00534771    -0.51380
O466        O  0.82855885  0.38001216  0.45865226    -0.59290
C467        C  0.82042403  0.40883606  0.48804357     1.01540
O468        O  0.68360402  0.47414136  0.61099431    -0.64480
O469        O  0.65187198  0.48666698  0.00537747    -0.62420
C470        C  0.90959726  0.10277055  0.88848749     0.93600
O471        O  0.88401222  0.32943503  0.89336701    -0.64570
C472        C  0.88596550  0.44317753  0.83297869     1.01170
C473        C  0.90594715  0.30460826  0.89168170     0.94120
Ti474      Ti  0.91355120  0.40002342  0.92005747     1.51160
Ti475      Ti  0.65273071  0.12775760  0.58546566     1.51270
O476        O  0.00167839  0.42358491  0.88739762    -0.58450
O477        O  0.91524978  0.04168523  0.49868660    -0.62450
C478        C  0.74570343  0.11949847  0.01499082     1.01570
O479        O  0.53456346  0.09395789  0.00176806    -0.51470
C480        C  0.46350020  0.14373654  0.57312448     1.01320
Ti481      Ti  0.91388164  0.01213544  0.91945105     1.51020
Ti482      Ti  0.98830701  0.37283473  0.95907700     1.52980
Ti483      Ti  0.57544435  0.41446695  0.55115818     1.49250
O484        O  0.57346755  0.18035413  0.90540728    -0.58160
O485        O  0.95252171  0.13083581  0.90614481    -0.64510
O486        O  0.94589767  0.31566824  0.91322055    -0.64620
O487        O  0.94650736  0.47177605  0.94626934    -0.51390
O488        O  0.56473832  0.45173566  0.62107170    -0.62370
O489        O  0.65474753  0.10421943  0.66806685    -0.59250
O490        O  0.91159125  0.36846015  0.50139427    -0.58470
O491        O  0.59812911  0.21169091  0.98330167    -0.59780
O492        O  0.68189261  0.19852546  0.61267493    -0.64580
O493        O  0.91272774  0.42388207  0.83667749    -0.59260
O494        O  0.61955653  0.05579502  0.55887950    -0.51390
C495        C  0.65867703  0.22247884  0.61637987     0.94120
O496        O  0.00288840  0.07477245  0.88372856    -0.62400
O497        O  0.56630494  0.38165543  0.91109014    -0.59860
O498        O  0.73784499  0.14879837  0.04375584    -0.59250
C499        C  0.60228166  0.38098349  0.93080063     1.01450
C500        C  0.60600912  0.21576933  0.92795692     1.01380
C501        C  0.66078041  0.42719172  0.61504649     0.93460
O502        O  0.73793802  0.08061503  0.04154170    -0.58600
O503        O  0.82846444  0.44814336  0.46237277    -0.58570
C504        C  0.68065381  0.08410343  0.67107096     1.01110
Ti505      Ti  0.65301715  0.01585711  0.58482086     1.51020
O506        O  0.49572458  0.14000343  0.59651539    -0.59850
O507        O  0.90899081  0.48845170  0.83722680    -0.58600
O508        O  0.49779242  0.34515200  0.60083068    -0.58180
O509        O  0.61692536  0.20989178  0.59690139    -0.64740
O510        O  0.96175748  0.31304685  0.52827204    -0.59790
O511        O  0.61878736  0.39849875  0.59656034    -0.64310
O512        O  0.97209880  0.14910019  0.51772900    -0.58090
Ti513      Ti  0.57553951  0.15242848  0.54965076     1.53190
O514        O  0.59981982  0.38069760  0.98481119    -0.58140
O515        O  0.56431684  0.10240171  0.62013526    -0.58490
O516        O  0.65643586  0.03871865  0.66727969    -0.58610
C517        C  0.46103238  0.30938132  0.58193583     1.01460
O518        O  0.88525891  0.05552777  0.89296935    -0.64570
Ti519      Ti  0.99350689  0.11276132  0.95329588     1.49460
O520        O  0.65347705  0.15965649  0.00555442    -0.58530
C521        C  0.86887065  0.14856042  0.85050348    -0.09240
C522        C  0.88768188  0.12636263  0.86417983    -0.10800
C523        C  0.78640380  0.14332232  0.89840041    -0.09240
C524        C  0.76349886  0.13039988  0.95142529    -0.10800
C525        C  0.86761903  0.22184001  0.85055939    -0.09240
C526        C  0.88508446  0.26147208  0.86545222    -0.10800
C527        C  0.70021301  0.30684352  0.65638318    -0.09240
C528        C  0.68065200  0.26649649  0.64213917    -0.10800
C529        C  0.68307704  0.40450346  0.64015670    -0.09240
C530        C  0.70140936  0.38204584  0.65414948    -0.10800
C531        C  0.80356668  0.39762978  0.55124338    -0.09240
C532        C  0.78146055  0.38484805  0.60418486    -0.10800
C533        C  0.91697830  0.14436828  0.60966056    -0.09240
C534        C  0.88055084  0.14881254  0.63918975    -0.10800
C535        C  0.73860379  0.11323933  0.67514739    -0.09240
C536        C  0.78828476  0.13740441  0.67513388    -0.10800
C537        C  0.88130675  0.21966560  0.65152781    -0.09240
C538        C  0.91684325  0.26188426  0.62236574    -0.10800
C539        C  0.84964551  0.15719554  0.73925766    -0.12400
C540        C  0.82267919  0.16651419  0.78675602    -0.27580
H541        H  0.87635858  0.14503703  0.74488035     0.16620
H542        H  0.79619183  0.17892408  0.78104803     0.17190
C543        C  0.65197942  0.26342407  0.89042059    -0.09240
C544        C  0.68729873  0.30537346  0.86156896    -0.10800
C545        C  0.68391270  0.37501545  0.86083105    -0.09240
C546        C  0.64751089  0.37957546  0.89108201    -0.10800
C547        C  0.77837895  0.38803353  0.82742328    -0.09240
C548        C  0.82824836  0.41328168  0.82745095    -0.10800
C549        C  0.70870937  0.35137110  0.76809887    -0.12400
C550        C  0.75024979  0.36958290  0.71499857    -0.27580
H551        H  0.66416418  0.32965228  0.76822570     0.16620
H552        H  0.79541850  0.39124282  0.71196494     0.17190
C553        C  0.71692568  0.85643398  0.32858832     0.01540
C554        C  0.84839166  0.66556781  0.17685152     0.01540
C555        C  0.73324244  0.86051653  0.15899508     0.01540
C556        C  0.83636235  0.66947519  0.34485124     0.01420
O557        O  0.53144805  0.93154056  0.50534730    -0.51380
O558        O  0.82855799  0.88001175  0.95865169    -0.59290
C559        C  0.82042374  0.90883632  0.98804205     1.01540
O560        O  0.68360293  0.97414054  0.11099269    -0.64480
O561        O  0.65187064  0.98666710  0.50537689    -0.62420
C562        C  0.90959687  0.60277033  0.38848891     0.93600
O563        O  0.88401120  0.82943469  0.39336756    -0.64570
C564        C  0.88596570  0.94317800  0.33297802     1.01170
C565        C  0.90594595  0.80460779  0.39168245     0.94120
Ti566      Ti  0.91355069  0.90002339  0.42005738     1.51160
Ti567      Ti  0.65273288  0.62775817  0.08546544     1.51270
O568        O  0.00167780  0.92358462  0.38739730    -0.58450
O569        O  0.91525028  0.54168505  0.99868739    -0.62450
C570        C  0.74570513  0.61949935  0.51499213     1.01570
O571        O  0.53456647  0.59395950  0.50176727    -0.51470
C572        C  0.46350280  0.64373754  0.07312396     1.01320
Ti573      Ti  0.91388164  0.51213543  0.41945225     1.51020
Ti574      Ti  0.98830653  0.87283466  0.45907691     1.52980
Ti575      Ti  0.57544221  0.91446558  0.05115820     1.49250
O576        O  0.57346964  0.68035522  0.40540632    -0.58160
O577        O  0.95252189  0.63083585  0.40614529    -0.64510
O578        O  0.94589660  0.81566786  0.41322109    -0.64620
O579        O  0.94650725  0.97177630  0.44626877    -0.51390
O580        O  0.56473670  0.95173445  0.12107181    -0.62370
O581        O  0.65474901  0.60421972  0.16806692    -0.59250
O582        O  0.91159041  0.86845989  0.00139406    -0.58470
O583        O  0.59813210  0.71169237  0.48330033    -0.59780
O584        O  0.68189511  0.69852621  0.11267449    -0.64580
O585        O  0.91272682  0.92388151  0.33667728    -0.59260
O586        O  0.61955844  0.55579546  0.05887949    -0.51390
C587        C  0.65867981  0.72247982  0.11637902     0.94120
O588        O  0.00288834  0.57477240  0.38372847    -0.62400
O589        O  0.56630350  0.88165451  0.41108980    -0.59860
O590        O  0.73784741  0.64879976  0.54375672    -0.59250
C591        C  0.60228085  0.88098332  0.43079988     1.01450
C592        C  0.60601135  0.71577061  0.42795568     1.01380
C593        C  0.66077929  0.92719088  0.11504522     0.93460
O594        O  0.73794001  0.58061628  0.54154362    -0.58600
O595        O  0.82846414  0.94814323  0.96237013    -0.58570
C596        C  0.68065509  0.58410357  0.17107129     1.01110
Ti597      Ti  0.65301851  0.51585715  0.08482132     1.51020
O598        O  0.49572738  0.64000459  0.09651465    -0.59850
O599        O  0.90899216  0.98845238  0.33722567    -0.58600
O600        O  0.49779070  0.84515056  0.10083085    -0.58180
O601        O  0.61692827  0.70989284  0.09690038    -0.64740
O602        O  0.96175629  0.81304648  0.02827242    -0.59790
O603        O  0.61878580  0.89849766  0.09655979    -0.64310
O604        O  0.97209929  0.64910012  0.01772930    -0.58090
Ti605      Ti  0.57554226  0.65242951  0.04964989     1.53190
O606        O  0.59981964  0.88069803  0.48481024    -0.58140
O607        O  0.56431915  0.60240267  0.12013459    -0.58490
O608        O  0.65643703  0.53871876  0.16728013    -0.58610
C609        C  0.46103043  0.80937989  0.08193619     1.01460
O610        O  0.88525832  0.55552749  0.39297133    -0.64570
Ti611      Ti  0.99350783  0.61276178  0.45329564     1.49460
O612        O  0.65347996  0.65965816  0.50555415    -0.58530
C613        C  0.86886979  0.64855988  0.35050517    -0.09240
C614        C  0.88768114  0.62636222  0.36418158    -0.10800
C615        C  0.78640255  0.64332129  0.39840159    -0.09240
C616        C  0.76349827  0.63039923  0.45142660    -0.10800
C617        C  0.86761760  0.72183921  0.35056081    -0.09240
C618        C  0.88508294  0.76147136  0.36545342    -0.10800
C619        C  0.70021541  0.80684476  0.15638171    -0.09240
C620        C  0.68065490  0.76649764  0.14213800    -0.10800
C621        C  0.68307643  0.90450293  0.14015506    -0.09240
C622        C  0.70140948  0.88204597  0.15414782    -0.10800
C623        C  0.80356772  0.89763150  0.05124187    -0.09240
C624        C  0.78146193  0.88484996  0.10418342    -0.10800
C625        C  0.91697985  0.64436888  0.10966119    -0.09240
C626        C  0.88055229  0.64881292  0.13919066    -0.10800
C627        C  0.73860503  0.61323934  0.17514773    -0.09240
C628        C  0.78828595  0.63740435  0.17513433    -0.10800
C629        C  0.88130751  0.71966564  0.15152853    -0.09240
C630        C  0.91684371  0.76188420  0.12236610    -0.10800
C631        C  0.84964626  0.65719573  0.23925860    -0.12400
C632        C  0.82267872  0.66651338  0.28675703    -0.27580
H633        H  0.87635999  0.64503801  0.24488140     0.16620
H634        H  0.79619082  0.67892263  0.28104889     0.17190
C635        C  0.65198100  0.76342541  0.39041912    -0.09240
C636        C  0.68729972  0.80537484  0.36156743    -0.10800
C637        C  0.68391248  0.87501618  0.36082982    -0.09240
C638        C  0.64751028  0.87957569  0.39108096    -0.10800
C639        C  0.77837927  0.88803516  0.32742221    -0.09240
C640        C  0.82824861  0.91328304  0.32745009    -0.10800
C641        C  0.70871011  0.85137241  0.26809741    -0.12400
C642        C  0.75025077  0.86958467  0.21499720    -0.27580
H643        H  0.66416496  0.82965307  0.26822406     0.16620
H644        H  0.79541946  0.89124519  0.21196373     0.17190
C645        C  0.71692545  0.85643400  0.82858874     0.01540
C646        C  0.84839183  0.66556794  0.67685112     0.01540
C647        C  0.73324232  0.86051682  0.65899547     0.01540
C648        C  0.83636242  0.66947503  0.84485089     0.01420
O649        O  0.53144739  0.93154012  0.00534781    -0.51380
O650        O  0.82855823  0.88001205  0.45865205    -0.59290
C651        C  0.82042394  0.90883659  0.48804247     1.01540
O652        O  0.68360310  0.97414114  0.61099309    -0.64480
O653        O  0.65187000  0.98666633  0.00537689    -0.62420
C654        C  0.90959678  0.60277012  0.88848879     0.93600
O655        O  0.88401108  0.82943444  0.89336730    -0.64570
C656        C  0.88596573  0.94317793  0.83297784     1.01170
C657        C  0.90594581  0.80460754  0.89168227     0.94120
Ti658      Ti  0.91355046  0.90002310  0.92005719     1.51160
Ti659      Ti  0.65273300  0.62775871  0.58546558     1.51270
O660        O  0.00167757  0.92358433  0.88739725    -0.58450
O661        O  0.91525066  0.54168543  0.49868736    -0.62450
C662        C  0.74570497  0.61949875  0.01499175     1.01570
O663        O  0.53456629  0.59395927  0.00176723    -0.51470
C664        C  0.46350276  0.64373767  0.57312379     1.01320
Ti665      Ti  0.91388150  0.51213520  0.91945216     1.51020
Ti666      Ti  0.98830622  0.87283436  0.95907691     1.52980
Ti667      Ti  0.57544287  0.91446619  0.55115786     1.49250
O668        O  0.57346957  0.68035516  0.90540640    -0.58160
O669        O  0.95252165  0.63083558  0.90614543    -0.64510
O670        O  0.94589639  0.81566758  0.91322104    -0.64620
O671        O  0.94650698  0.97177598  0.94626870    -0.51390
O672        O  0.56473690  0.95173483  0.62107155    -0.62370
O673        O  0.65474920  0.60422036  0.66806709    -0.59250
O674        O  0.91159077  0.86846024  0.50139419    -0.58470
O675        O  0.59813222  0.71169217  0.98330041    -0.59780
O676        O  0.68189501  0.69852670  0.61267467    -0.64580
O677        O  0.91272670  0.92388129  0.83667705    -0.59260
O678        O  0.61955867  0.55579602  0.55887954    -0.51390
C679        C  0.65867961  0.72248022  0.61637917     0.94120
O680        O  0.00288821  0.57477221  0.88372865    -0.62400
O681        O  0.56630303  0.88165433  0.91109013    -0.59860
O682        O  0.73784723  0.64879907  0.04375654    -0.59250
C683        C  0.60228015  0.88098285  0.93080032     1.01450
C684        C  0.60601133  0.71577051  0.92795578     1.01380
C685        C  0.66077966  0.92719154  0.61504538     0.93460
O686        O  0.73793982  0.58061558  0.04154303    -0.58600
O687        O  0.82846433  0.94814352  0.46237062    -0.58570
C688        C  0.68065503  0.58410398  0.67107145     1.01110
Ti689      Ti  0.65301869  0.51585770  0.58482147     1.51020
O690        O  0.49572729  0.64000474  0.59651459    -0.59850
O691        O  0.90899247  0.98845236  0.83722538    -0.58600
O692        O  0.49779142  0.84515101  0.60083041    -0.58180
O693        O  0.61692811  0.70989320  0.59690042    -0.64740
O694        O  0.96175663  0.81304676  0.52827233    -0.59790
O695        O  0.61878643  0.89849836  0.59655959    -0.64310
O696        O  0.97209985  0.64910062  0.51772890    -0.58090
Ti697      Ti  0.57554227  0.65242982  0.54964991     1.53190
O698        O  0.59981850  0.88069705  0.98481080    -0.58140
O699        O  0.56431922  0.60240308  0.62013469    -0.58490
O700        O  0.65643662  0.53871912  0.66728043    -0.58610
C701        C  0.46103112  0.80938029  0.58193581     1.01460
O702        O  0.88525828  0.55552730  0.89297110    -0.64570
Ti703      Ti  0.99350748  0.61276147  0.95329589     1.49460
O704        O  0.65347985  0.65965767  0.00555404    -0.58530
C705        C  0.86886988  0.64855973  0.85050478    -0.09240
C706        C  0.88768119  0.62636206  0.86418128    -0.10800
C707        C  0.78640262  0.64332107  0.89840123    -0.09240
C708        C  0.76349829  0.63039889  0.95142623    -0.10800
C709        C  0.86761763  0.72183902  0.85056053    -0.09240
C710        C  0.88508290  0.76147114  0.86545318    -0.10800
C711        C  0.70021507  0.80684508  0.65638205    -0.09240
C712        C  0.68065454  0.76649799  0.64213824    -0.10800
C713        C  0.68307671  0.90450359  0.64015539    -0.09240
C714        C  0.70140961  0.88204651  0.65414820    -0.10800
C715        C  0.80356769  0.89763163  0.55124229    -0.09240
C716        C  0.78146183  0.88485013  0.60418383    -0.10800
C717        C  0.91698006  0.64436909  0.60966074    -0.09240
C718        C  0.88055246  0.64881308  0.63919018    -0.10800
C719        C  0.73860515  0.61323960  0.67514748    -0.09240
C720        C  0.78828612  0.63740455  0.67513391    -0.10800
C721        C  0.88130776  0.71966582  0.65152827    -0.09240
C722        C  0.91684403  0.76188441  0.62236596    -0.10800
C723        C  0.84964639  0.65719572  0.73925819    -0.12400
C724        C  0.82267880  0.66651328  0.78675668    -0.27580
H725        H  0.87636013  0.64503800  0.74488094     0.16620
H726        H  0.79619088  0.67892253  0.78104860     0.17190
C727        C  0.65198092  0.76342535  0.89041929    -0.09240
C728        C  0.68729956  0.80537483  0.86156770    -0.10800
C729        C  0.68391213  0.87501607  0.86083033    -0.09240
C730        C  0.64750976  0.87957541  0.89108144    -0.10800
C731        C  0.77837905  0.88803521  0.82742264    -0.09240
C732        C  0.82824845  0.91328305  0.82745036    -0.10800
C733        C  0.70870993  0.85137255  0.76809781    -0.12400
C734        C  0.75025061  0.86958481  0.71499761    -0.27580
H735        H  0.66416479  0.82965328  0.76822443     0.16620
H736        H  0.79541928  0.89124523  0.71196418     0.17190
loop_ 
_geom_bond_atom_site_label_1 
_geom_bond_atom_site_label_2 
_geom_bond_distance 
_geom_bond_site_symmetry_2 
_ccdc_geom_bond_type 
C1           C84   1.465       .  S
C1           C85   1.480       .  S
C1           C87   1.496       .  S
C1           C89   1.514       .  S
C2           C74   1.469       .  S
C2           C76   1.485       .  S
C2           C77   1.480       .  S
C2           C79   1.514       .  S
C3           C67   1.475       .  S
C3           C70   1.466       .  S
C3           C72   1.455       .  S
C3           C90   1.515       .  S
C4           C61   1.473       .  S
C4           C63   1.460       .  S
C4           C65   1.458       .  S
C4           C80   1.522       .  S
O5         Ti115   2.151       .  S
O5         Ti390   2.147   1_455  S
O6            C7   1.275       .  A
O6         Ti106   2.124       .  S
C7           O43   1.277       .  A
C7           C71   1.427   1_556  S
O8           C41   1.279       .  A
O8         Ti229   2.151       .  S
O9         Ti321   2.134       .  S
O9         Ti115   2.144       .  S
C10          O25   1.270       .  A
C10          O58   1.280       .  A
C10          C62   1.431       .  S
O11          C13   1.278       .  A
O11         Ti14   2.146       .  S
C12          O47   1.261       .  A
C12          O33   1.263       .  A
C12          C88   1.460       .  S
C13          O26   1.268       .  A
C13          C66   1.424       .  S
Ti14         O27   2.164       .  S
Ti14         O16   2.156       .  S
Ti14        O122   2.141       .  S
Ti14         O33   2.122       .  S
Ti14         O98   2.124       .  S
Ti15         O55   2.149       .  S
Ti15         O34   2.173       .  S
Ti15        O152   2.133       .  S
Ti15         O32   2.158       .  S
Ti15         O29   2.117       .  S
Ti15        O130   2.127       .  S
O16         Ti22   2.147       .  S
O17        Ti151   2.141       .  S
O17        Ti113   2.135       .  S
C18          O38   1.277       .  A
C18          O42   1.277       .  A
C18          C64   1.434       .  S
O19        Ti145   2.155       .  S
O19        Ti427   2.151   1_455  S
C20          O46   1.266       .  A
C20         O420   1.265       .  A
C20         C441   1.433       .  S
Ti21         O36   2.154       .  S
Ti21        O109   2.135       .  S
Ti21        O211   2.170   1_545  S
Ti21         O58   2.153       .  S
Ti21        O231   2.128   1_545  S
Ti21        O319   2.128   1_545  S
Ti22        O373   2.147       .  S
Ti22        O122   2.145       .  S
Ti22         O26   2.106       .  S
Ti22        O142   2.155       .  S
Ti22        O405   2.137       .  S
Ti23         O28   2.144       .  S
Ti23         O97   2.151       .  S
Ti23        O101   2.144       .  S
Ti23         O48   2.132   1_455  S
Ti23         O51   2.107       .  S
Ti23        O146   2.144   1_554  S
O24          C40   1.267       .  A
O24        Ti427   2.122   1_455  S
O25         Ti59   2.114       .  S
O27        Ti205   2.170       .  S
O28        Ti229   2.157       .  S
O29          C44   1.260       .  A
O30        Ti106   2.141   1_554  S
O30        Ti114   2.145   1_554  S
O31          C40   1.267       .  A
O31        Ti145   2.141       .  S
O32          C35   1.281       .  A
O34         Ti45   2.171       .  S
C35          O49   1.273       .  A
C35          C68   1.440       .  S
O36         Ti59   2.143       .  S
O37          C39   1.267       .  A
O37        Ti390   2.137   1_455  S
O38        Ti107   2.127       .  S
C39          O54   1.267       .  A
C39          C86   1.447       .  S
C40          C83   1.433       .  S
C41          O51   1.267       .  A
C41          C69   1.428       .  S
O42        Ti137   2.131       .  S
O43        Ti297   2.128       .  S
C44          O56   1.259       .  A
C44          C75   1.452       .  S
Ti45        O285   2.134   1_545  S
Ti45        O212   2.157   1_545  S
Ti45         O56   2.120       .  S
Ti45        O192   2.151   1_545  S
Ti45        O134   2.131       .  S
O46         Ti53   2.124   1_655  S
O47        Ti205   2.128       .  S
O48          C57   1.268       .  A
O49         Ti53   2.128       .  S
O50         C425   1.272       .  A
O50        Ti114   2.155   1_554  S
O52         C388   1.265       .  A
O52        Ti151   2.138   1_554  S
Ti53         O55   2.140       .  S
Ti53        O111   2.155       .  S
Ti53        O152   2.138       .  S
Ti53        O123   2.141   1_554  S
O54        Ti115   2.144       .  S
C57         O418   1.272       .  A
C57         C446   1.448       .  S
Ti59        O109   2.141       .  S
Ti59        O387   2.151       .  S
Ti59        O392   2.122       .  S
Ti59        O144   2.138       .  S
O60        Ti107   2.133       .  S
O60        Ti145   2.138       .  S
C61          C62   1.205       .  T
C63          C64   1.206       .  T
C65          C66   1.201       .  T
C67          C68   1.210       .  T
C69          C70   1.203       .  T
C71          C72   1.202       .  T
C73         C388   1.433       .  S
C73          C74   1.206       .  T
C75          C76   1.216       .  T
C77          C78   1.214       .  T
C78         C425   1.448       .  S
C79          C80   1.351       .  D
C79          H81   1.087       .  S
C80          H82   1.087       .  S
C83          C84   1.206       .  T
C85          C86   1.214       .  T
C87          C88   1.221       .  T
C89          C90   1.351       .  D
C89          H91   1.089       .  S
C90          H92   1.085       .  S
C93         C176   1.465       .  S
C93         C177   1.480       .  S
C93         C179   1.496       .  S
C93         C181   1.514       .  S
C94         C166   1.469       .  S
C94         C168   1.485       .  S
C94         C169   1.480       .  S
C94         C171   1.514       .  S
C95         C159   1.475       .  S
C95         C162   1.466       .  S
C95         C164   1.455       .  S
C95         C182   1.515       .  S
C96         C153   1.473       .  S
C96         C155   1.460       .  S
C96         C157   1.458       .  S
C96         C172   1.522       .  S
O97        Ti482   2.147   1_454  S
O98          C99   1.275       .  A
C99         O135   1.277       .  A
C99         C163   1.427       .  S
O100        C133   1.279       .  A
O100       Ti321   2.151       .  S
O101       Ti229   2.134       .  S
C102        O117   1.270       .  A
C102        O150   1.280       .  A
C102        C154   1.431       .  S
O103        C105   1.278       .  A
O103       Ti106   2.146       .  S
C104        O139   1.261       .  A
C104        O125   1.263       .  A
C104        C180   1.460       .  S
C105        O118   1.268       .  A
C105        C158   1.424       .  S
Ti106       O119   2.164       .  S
Ti106       O108   2.156       .  S
Ti106       O125   2.122       .  S
Ti107       O147   2.149       .  S
Ti107       O126   2.173       .  S
Ti107       O124   2.158       .  S
Ti107       O121   2.117       .  S
O108       Ti114   2.147       .  S
C110        O130   1.277       .  A
C110        O134   1.277       .  A
C110        C156   1.434   1_554  S
O111       Ti519   2.151   1_454  S
C112        O138   1.266       .  A
C112        O512   1.265       .  A
C112        C533   1.433       .  S
Ti113       O128   2.154       .  S
Ti113       O303   2.170   1_545  S
Ti113       O150   2.153       .  S
Ti113       O323   2.128   1_545  S
Ti113       O227   2.128   1_545  S
Ti114       O465   2.147   1_556  S
Ti114       O118   2.106       .  S
Ti114       O497   2.137       .  S
Ti115       O120   2.144       .  S
Ti115       O140   2.132   1_455  S
Ti115       O143   2.107       .  S
O116        C132   1.267       .  A
O116       Ti519   2.122   1_455  S
O117       Ti151   2.114       .  S
O119       Ti297   2.170       .  S
O120       Ti321   2.157       .  S
O121        C136   1.260       .  A
O123        C132   1.267       .  A
O124        C127   1.281       .  A
O126       Ti137   2.171       .  S
C127        O141   1.273       .  A
C127        C160   1.440       .  S
O128       Ti151   2.143       .  S
O129        C131   1.267       .  A
O129       Ti482   2.137   1_455  S
C131        O146   1.267       .  A
C131        C178   1.447       .  S
C132        C175   1.433       .  S
C133        O143   1.267       .  A
C133        C161   1.428       .  S
O135       Ti205   2.128       .  S
C136        O148   1.259       .  A
C136        C167   1.452       .  S
Ti137       O193   2.134   1_545  S
Ti137       O304   2.157   1_545  S
Ti137       O284   2.151   1_545  S
Ti137       O148   2.120       .  S
O138       Ti145   2.124   1_655  S
O139       Ti297   2.128       .  S
O140        C149   1.268       .  A
O141       Ti145   2.128       .  S
O142        C517   1.272       .  A
O144        C480   1.265       .  A
Ti145       O147   2.140       .  S
C149        O510   1.272       .  A
C149        C538   1.448       .  S
Ti151       O479   2.151   1_556  S
Ti151       O484   2.122       .  S
C153        C154   1.205       .  T
C155        C156   1.206       .  T
C157        C158   1.201       .  T
C159        C160   1.210       .  T
C161        C162   1.203       .  T
C163        C164   1.202       .  T
C165        C480   1.433       .  S
C165        C166   1.206       .  T
C167        C168   1.216       .  T
C169        C170   1.214       .  T
C170        C517   1.448       .  S
C171        C172   1.351       .  D
C171        H173   1.087       .  S
C172        H174   1.087       .  S
C175        C176   1.206       .  T
C177        C178   1.214       .  T
C179        C180   1.221       .  T
C181        C182   1.351       .  D
C181        H183   1.089       .  S
C182        H184   1.085       .  S
C185        C268   1.465       .  S
C185        C269   1.480       .  S
C185        C271   1.496       .  S
C185        C273   1.514       .  S
C186        C258   1.469       .  S
C186        C260   1.485       .  S
C186        C261   1.480       .  S
C186        C263   1.514       .  S
C187        C251   1.475       .  S
C187        C254   1.466       .  S
C187        C256   1.455       .  S
C187        C274   1.515       .  S
C188        C245   1.473       .  S
C188        C247   1.460       .  S
C188        C249   1.458       .  S
C188        C264   1.522       .  S
O189       Ti299   2.151       .  S
O189       Ti574   2.147   1_455  S
O190        C191   1.275       .  A
O190       Ti290   2.124       .  S
C191        O227   1.277       .  A
C191        C255   1.427   1_556  S
O192        C225   1.279       .  A
O193       Ti299   2.144       .  S
C194        O209   1.270       .  A
C194        O242   1.280       .  A
C194        C246   1.431       .  S
O195        C197   1.278       .  A
O195       Ti198   2.146       .  S
C196        O231   1.261       .  A
C196        O217   1.263       .  A
C196        C272   1.460       .  S
C197        O210   1.268       .  A
C197        C250   1.424       .  S
Ti198       O211   2.164       .  S
Ti198       O306   2.141       .  S
Ti198       O200   2.156       .  S
Ti198       O282   2.124       .  S
Ti198       O217   2.122       .  S
Ti199       O336   2.133       .  S
Ti199       O239   2.149       .  S
Ti199       O218   2.173       .  S
Ti199       O216   2.158       .  S
Ti199       O213   2.117       .  S
Ti199       O314   2.127       .  S
O200       Ti206   2.147       .  S
O201       Ti335   2.141       .  S
O201       Ti297   2.135       .  S
C202        O222   1.277       .  A
C202        O226   1.277       .  A
C202        C248   1.434       .  S
O203       Ti329   2.155       .  S
O203       Ti611   2.151   1_455  S
C204        O230   1.266       .  A
C204        O604   1.265       .  A
C204        C625   1.433       .  S
Ti205       O293   2.135       .  S
Ti205       O220   2.154       .  S
Ti205       O242   2.153       .  S
Ti206       O557   2.147       .  S
Ti206       O306   2.145       .  S
Ti206       O326   2.155       .  S
Ti206       O210   2.106       .  S
Ti206       O589   2.137       .  S
Ti207       O281   2.151       .  S
Ti207       O285   2.144       .  S
Ti207       O212   2.144       .  S
Ti207       O330   2.144   1_554  S
Ti207       O232   2.132   1_455  S
Ti207       O235   2.107       .  S
O208        C224   1.267       .  A
O208       Ti611   2.122   1_455  S
O209       Ti243   2.114       .  S
O213        C228   1.260       .  A
O214       Ti290   2.141   1_554  S
O214       Ti298   2.145   1_554  S
O215        C224   1.267       .  A
O215       Ti329   2.141       .  S
O216        C219   1.281       .  A
O218       Ti229   2.171       .  S
C219        O233   1.273       .  A
C219        C252   1.440       .  S
O220       Ti243   2.143       .  S
O221        C223   1.267       .  A
O221       Ti574   2.137   1_455  S
O222       Ti291   2.127       .  S
C223        O238   1.267       .  A
C223        C270   1.447       .  S
C224        C267   1.433       .  S
C225        O235   1.267       .  A
C225        C253   1.428       .  S
O226       Ti321   2.131       .  S
C228        O240   1.259       .  A
C228        C259   1.452       .  S
Ti229       O318   2.131       .  S
Ti229       O240   2.120       .  S
O230       Ti237   2.124   1_655  S
O232        C241   1.268       .  A
O233       Ti237   2.128       .  S
O234        C609   1.272       .  A
O234       Ti298   2.155   1_554  S
O236        C572   1.265       .  A
O236       Ti335   2.138   1_554  S
Ti237       O295   2.155       .  S
Ti237       O336   2.138       .  S
Ti237       O239   2.140       .  S
Ti237       O307   2.141   1_554  S
O238       Ti299   2.144       .  S
C241        O602   1.272       .  A
C241        C630   1.448       .  S
Ti243       O293   2.141       .  S
Ti243       O571   2.151       .  S
Ti243       O576   2.122       .  S
Ti243       O328   2.138       .  S
O244       Ti291   2.133       .  S
O244       Ti329   2.138       .  S
C245        C246   1.205       .  T
C247        C248   1.206       .  T
C249        C250   1.201       .  T
C251        C252   1.210       .  T
C253        C254   1.203       .  T
C255        C256   1.202       .  T
C257        C572   1.433       .  S
C257        C258   1.206       .  T
C259        C260   1.216       .  T
C261        C262   1.214       .  T
C262        C609   1.448       .  S
C263        C264   1.351       .  D
C263        H265   1.087       .  S
C264        H266   1.087       .  S
C267        C268   1.206       .  T
C269        C270   1.214       .  T
C271        C272   1.221       .  T
C273        C274   1.351       .  D
C273        H275   1.089       .  S
C274        H276   1.085       .  S
C277        C360   1.465       .  S
C277        C361   1.480       .  S
C277        C363   1.496       .  S
C277        C365   1.514       .  S
C278        C350   1.469       .  S
C278        C352   1.485       .  S
C278        C353   1.480       .  S
C278        C355   1.514       .  S
C279        C343   1.475       .  S
C279        C346   1.466       .  S
C279        C348   1.455       .  S
C279        C366   1.515       .  S
C280        C337   1.473       .  S
C280        C339   1.460       .  S
C280        C341   1.458       .  S
C280        C356   1.522       .  S
O281       Ti666   2.147   1_454  S
O282        C283   1.275       .  A
C283        O319   1.277       .  A
C283        C347   1.427       .  S
O284        C317   1.279       .  A
C286        O301   1.270       .  A
C286        O334   1.280       .  A
C286        C338   1.431       .  S
O287        C289   1.278       .  A
O287       Ti290   2.146       .  S
C288        O323   1.261       .  A
C288        O309   1.263       .  A
C288        C364   1.460       .  S
C289        O302   1.268       .  A
C289        C342   1.424       .  S
Ti290       O303   2.164       .  S
Ti290       O292   2.156       .  S
Ti290       O309   2.122       .  S
Ti291       O331   2.149       .  S
Ti291       O310   2.173       .  S
Ti291       O308   2.158       .  S
Ti291       O305   2.117       .  S
O292       Ti298   2.147       .  S
C294        O314   1.277       .  A
C294        O318   1.277       .  A
C294        C340   1.434   1_554  S
O295       Ti703   2.151   1_454  S
C296        O322   1.266       .  A
C296        O696   1.265       .  A
C296        C717   1.433       .  S
Ti297       O312   2.154       .  S
Ti297       O334   2.153       .  S
Ti298       O649   2.147   1_556  S
Ti298       O302   2.106       .  S
Ti298       O681   2.137       .  S
Ti299       O304   2.144       .  S
Ti299       O324   2.132   1_455  S
Ti299       O327   2.107       .  S
O300        C316   1.267       .  A
O300       Ti703   2.122   1_455  S
O301       Ti335   2.114       .  S
O305        C320   1.260       .  A
O307        C316   1.267       .  A
O308        C311   1.281       .  A
O310       Ti321   2.171       .  S
C311        O325   1.273       .  A
C311        C344   1.440       .  S
O312       Ti335   2.143       .  S
O313        C315   1.267       .  A
O313       Ti666   2.137   1_455  S
C315        O330   1.267       .  A
C315        C362   1.447       .  S
C316        C359   1.433       .  S
C317        O327   1.267       .  A
C317        C345   1.428       .  S
C320        O332   1.259       .  A
C320        C351   1.452       .  S
Ti321       O332   2.120       .  S
O322       Ti329   2.124   1_655  S
O324        C333   1.268       .  A
O325       Ti329   2.128       .  S
O326        C701   1.272       .  A
O328        C664   1.265       .  A
Ti329       O331   2.140       .  S
C333        O694   1.272       .  A
C333        C722   1.448       .  S
Ti335       O663   2.151   1_556  S
Ti335       O668   2.122       .  S
C337        C338   1.205       .  T
C339        C340   1.206       .  T
C341        C342   1.201       .  T
C343        C344   1.210       .  T
C345        C346   1.203       .  T
C347        C348   1.202       .  T
C349        C664   1.433       .  S
C349        C350   1.206       .  T
C351        C352   1.216       .  T
C353        C354   1.214       .  T
C354        C701   1.448       .  S
C355        C356   1.351       .  D
C355        H357   1.087       .  S
C356        H358   1.087       .  S
C359        C360   1.206       .  T
C361        C362   1.214       .  T
C363        C364   1.221       .  T
C365        C366   1.351       .  D
C365        H367   1.089       .  S
C366        H368   1.085       .  S
C369        C452   1.465       .  S
C369        C453   1.480       .  S
C369        C455   1.496       .  S
C369        C457   1.514       .  S
C370        C442   1.469       .  S
C370        C444   1.485       .  S
C370        C445   1.480       .  S
C370        C447   1.514       .  S
C371        C435   1.475       .  S
C371        C438   1.466       .  S
C371        C440   1.455       .  S
C371        C458   1.515       .  S
C372        C429   1.473       .  S
C372        C431   1.460       .  S
C372        C433   1.458       .  S
C372        C448   1.522       .  S
O373       Ti483   2.151       .  S
O374        C375   1.275       .  A
O374       Ti474   2.124       .  S
C375        O411   1.277       .  A
C375        C439   1.427   1_556  S
O376        C409   1.279       .  A
O376       Ti597   2.151       .  S
O377       Ti689   2.134       .  S
O377       Ti483   2.144       .  S
C378        O393   1.270       .  A
C378        O426   1.280       .  A
C378        C430   1.431       .  S
O379        C381   1.278       .  A
O379       Ti382   2.146       .  S
C380        O415   1.261       .  A
C380        O401   1.263       .  A
C380        C456   1.460       .  S
C381        O394   1.268       .  A
C381        C434   1.424       .  S
Ti382       O395   2.164       .  S
Ti382       O490   2.141       .  S
Ti382       O384   2.156   1_655  S
Ti382       O466   2.124       .  S
Ti382       O401   2.122       .  S
Ti383       O520   2.133       .  S
Ti383       O423   2.149       .  S
Ti383       O402   2.173       .  S
Ti383       O400   2.158       .  S
Ti383       O397   2.117       .  S
Ti383       O498   2.127       .  S
O384       Ti390   2.147   1_455  S
O385       Ti519   2.141       .  S
O385       Ti481   2.135       .  S
C386        O406   1.277       .  A
C386        O410   1.277       .  A
C386        C432   1.434       .  S
O387       Ti513   2.155       .  S
C388        O414   1.266       .  A
Ti389       O477   2.135       .  S
Ti389       O404   2.154   1_655  S
Ti389       O579   2.170   1_545  S
Ti389       O426   2.153       .  S
Ti389       O599   2.128   1_545  S
Ti389       O687   2.128   1_545  S
Ti390       O490   2.145       .  S
Ti390       O510   2.155       .  S
Ti390       O394   2.106       .  S
Ti391       O465   2.151       .  S
Ti391       O469   2.144       .  S
Ti391       O396   2.144       .  S
Ti391       O514   2.144   1_554  S
Ti391       O416   2.132       .  S
Ti391       O419   2.107       .  S
O392        C408   1.267       .  A
O393       Ti427   2.114       .  S
O395       Ti573   2.170       .  S
O396       Ti597   2.157       .  S
O397        C412   1.260       .  A
O398       Ti474   2.141   1_554  S
O398       Ti482   2.145   1_554  S
O399        C408   1.267       .  A
O399       Ti513   2.141       .  S
O400        C403   1.281       .  A
O402       Ti413   2.171       .  S
C403        O417   1.273       .  A
C403        C436   1.440       .  S
O404       Ti427   2.143   1_455  S
O405        C407   1.267       .  A
O406       Ti475   2.127       .  S
C407        O422   1.267       .  A
C407        C454   1.447       .  S
C408        C451   1.433       .  S
C409        O419   1.267       .  A
C409        C437   1.428       .  S
O410       Ti505   2.131       .  S
O411       Ti665   2.128       .  S
C412        O424   1.259       .  A
C412        C443   1.452       .  S
Ti413       O653   2.134   1_545  S
Ti413       O580   2.157   1_545  S
Ti413       O560   2.151   1_545  S
Ti413       O502   2.131       .  S
Ti413       O424   2.120       .  S
O414       Ti421   2.124       .  S
O415       Ti573   2.128       .  S
O416        C425   1.268       .  A
O417       Ti421   2.128       .  S
O418       Ti482   2.155   1_554  S
O420       Ti519   2.138   1_554  S
Ti421       O479   2.155       .  S
Ti421       O520   2.138       .  S
Ti421       O423   2.140       .  S
Ti421       O491   2.141   1_554  S
O422       Ti483   2.144       .  S
Ti427       O477   2.141       .  S
Ti427       O512   2.138       .  S
O428       Ti475   2.133       .  S
O428       Ti513   2.138       .  S
C429        C430   1.205       .  T
C431        C432   1.206       .  T
C433        C434   1.201       .  T
C435        C436   1.210       .  T
C437        C438   1.203       .  T
C439        C440   1.202       .  T
C441        C442   1.206       .  T
C443        C444   1.216       .  T
C445        C446   1.214       .  T
C447        C448   1.351       .  D
C447        H449   1.087       .  S
C448        H450   1.087       .  S
C451        C452   1.206       .  T
C453        C454   1.214       .  T
C455        C456   1.221       .  T
C457        C458   1.351       .  D
C457        H459   1.089       .  S
C458        H460   1.085       .  S
C461        C544   1.465       .  S
C461        C545   1.480       .  S
C461        C547   1.496       .  S
C461        C549   1.514       .  S
C462        C534   1.469       .  S
C462        C536   1.485       .  S
C462        C537   1.480       .  S
C462        C539   1.514       .  S
C463        C527   1.475       .  S
C463        C530   1.466       .  S
C463        C532   1.455       .  S
C463        C550   1.515       .  S
C464        C521   1.473       .  S
C464        C523   1.460       .  S
C464        C525   1.458       .  S
C464        C540   1.522       .  S
O466        C467   1.275       .  A
C467        O503   1.277       .  A
C467        C531   1.427       .  S
O468        C501   1.279       .  A
O468       Ti689   2.151       .  S
O469       Ti597   2.134       .  S
C470        O485   1.270       .  A
C470        O518   1.280       .  A
C470        C522   1.431       .  S
O471        C473   1.278       .  A
O471       Ti474   2.146       .  S
C472        O507   1.261       .  A
C472        O493   1.263       .  A
C472        C548   1.460       .  S
C473        O486   1.268       .  A
C473        C526   1.424       .  S
Ti474       O487   2.164       .  S
Ti474       O476   2.156   1_655  S
Ti474       O493   2.122       .  S
Ti475       O515   2.149       .  S
Ti475       O494   2.173       .  S
Ti475       O492   2.158       .  S
Ti475       O489   2.117       .  S
O476       Ti482   2.147   1_455  S
C478        O498   1.277       .  A
C478        O502   1.277       .  A
C478        C524   1.434   1_554  S
C480        O506   1.266       .  A
Ti481       O496   2.154   1_655  S
Ti481       O671   2.170   1_545  S
Ti481       O518   2.153       .  S
Ti481       O691   2.128   1_545  S
Ti481       O595   2.128   1_545  S
Ti482       O486   2.106       .  S
Ti483       O488   2.144       .  S
Ti483       O508   2.132       .  S
Ti483       O511   2.107       .  S
O484        C500   1.267       .  A
O485       Ti519   2.114       .  S
O487       Ti665   2.170       .  S
O488       Ti689   2.157       .  S
O489        C504   1.260       .  A
O491        C500   1.267       .  A
O492        C495   1.281       .  A
O494       Ti505   2.171       .  S
C495        O509   1.273       .  A
C495        C528   1.440       .  S
O496       Ti519   2.143   1_455  S
O497        C499   1.267       .  A
C499        O514   1.267       .  A
C499        C546   1.447       .  S
C500        C543   1.433       .  S
C501        O511   1.267       .  A
C501        C529   1.428       .  S
O503       Ti573   2.128       .  S
C504        O516   1.259       .  A
C504        C535   1.452       .  S
Ti505       O561   2.134   1_545  S
Ti505       O672   2.157   1_545  S
Ti505       O652   2.151   1_545  S
Ti505       O516   2.120       .  S
O506       Ti513   2.124       .  S
O507       Ti665   2.128       .  S
O508        C517   1.268       .  A
O509       Ti513   2.128       .  S
Ti513       O515   2.140       .  S
C521        C522   1.205       .  T
C523        C524   1.206       .  T
C525        C526   1.201       .  T
C527        C528   1.210       .  T
C529        C530   1.203       .  T
C531        C532   1.202       .  T
C533        C534   1.206       .  T
C535        C536   1.216       .  T
C537        C538   1.214       .  T
C539        C540   1.351       .  D
C539        H541   1.087       .  S
C540        H542   1.087       .  S
C543        C544   1.206       .  T
C545        C546   1.214       .  T
C547        C548   1.221       .  T
C549        C550   1.351       .  D
C549        H551   1.089       .  S
C550        H552   1.085       .  S
C553        C636   1.465       .  S
C553        C637   1.480       .  S
C553        C639   1.496       .  S
C553        C641   1.514       .  S
C554        C626   1.469       .  S
C554        C628   1.485       .  S
C554        C629   1.480       .  S
C554        C631   1.514       .  S
C555        C619   1.475       .  S
C555        C622   1.466       .  S
C555        C624   1.455       .  S
C555        C642   1.515       .  S
C556        C613   1.473       .  S
C556        C615   1.460       .  S
C556        C617   1.458       .  S
C556        C632   1.522       .  S
O557       Ti667   2.151       .  S
O558        C559   1.275       .  A
O558       Ti658   2.124       .  S
C559        O595   1.277       .  A
C559        C623   1.427   1_556  S
O560        C593   1.279       .  A
O561       Ti667   2.144       .  S
C562        O577   1.270       .  A
C562        O610   1.280       .  A
C562        C614   1.431       .  S
O563        C565   1.278       .  A
O563       Ti566   2.146       .  S
C564        O599   1.261       .  A
C564        O585   1.263       .  A
C564        C640   1.460       .  S
C565        O578   1.268       .  A
C565        C618   1.424       .  S
Ti566       O579   2.164       .  S
Ti566       O674   2.141       .  S
Ti566       O568   2.156   1_655  S
Ti566       O650   2.124       .  S
Ti566       O585   2.122       .  S
Ti567       O704   2.133       .  S
Ti567       O607   2.149       .  S
Ti567       O586   2.173       .  S
Ti567       O584   2.158       .  S
Ti567       O581   2.117       .  S
Ti567       O682   2.127       .  S
O568       Ti574   2.147   1_455  S
O569       Ti703   2.141       .  S
O569       Ti665   2.135       .  S
C570        O590   1.277       .  A
C570        O594   1.277       .  A
C570        C616   1.434       .  S
O571       Ti697   2.155       .  S
C572        O598   1.266       .  A
Ti573       O661   2.135       .  S
Ti573       O588   2.154   1_655  S
Ti573       O610   2.153       .  S
Ti574       O674   2.145       .  S
Ti574       O694   2.155       .  S
Ti574       O578   2.106       .  S
Ti575       O649   2.151       .  S
Ti575       O653   2.144       .  S
Ti575       O580   2.144       .  S
Ti575       O698   2.144   1_554  S
Ti575       O600   2.132       .  S
Ti575       O603   2.107       .  S
O576        C592   1.267       .  A
O577       Ti611   2.114       .  S
O581        C596   1.260       .  A
O582       Ti658   2.141   1_554  S
O582       Ti666   2.145   1_554  S
O583        C592   1.267       .  A
O583       Ti697   2.141       .  S
O584        C587   1.281       .  A
O586       Ti597   2.171       .  S
C587        O601   1.273       .  A
C587        C620   1.440       .  S
O588       Ti611   2.143   1_455  S
O589        C591   1.267       .  A
O590       Ti659   2.127       .  S
C591        O606   1.267       .  A
C591        C638   1.447       .  S
C592        C635   1.433       .  S
C593        O603   1.267       .  A
C593        C621   1.428       .  S
O594       Ti689   2.131       .  S
C596        O608   1.259       .  A
C596        C627   1.452       .  S
Ti597       O686   2.131       .  S
Ti597       O608   2.120       .  S
O598       Ti605   2.124       .  S
O600        C609   1.268       .  A
O601       Ti605   2.128       .  S
O602       Ti666   2.155   1_554  S
O604       Ti703   2.138   1_554  S
Ti605       O663   2.155       .  S
Ti605       O704   2.138       .  S
Ti605       O607   2.140       .  S
Ti605       O675   2.141   1_554  S
O606       Ti667   2.144       .  S
Ti611       O661   2.141       .  S
Ti611       O696   2.138       .  S
O612       Ti659   2.133       .  S
O612       Ti697   2.138       .  S
C613        C614   1.205       .  T
C615        C616   1.206       .  T
C617        C618   1.201       .  T
C619        C620   1.210       .  T
C621        C622   1.203       .  T
C623        C624   1.202       .  T
C625        C626   1.206       .  T
C627        C628   1.216       .  T
C629        C630   1.214       .  T
C631        C632   1.351       .  D
C631        H633   1.087       .  S
C632        H634   1.087       .  S
C635        C636   1.206       .  T
C637        C638   1.214       .  T
C639        C640   1.221       .  T
C641        C642   1.351       .  D
C641        H643   1.089       .  S
C642        H644   1.085       .  S
C645        C728   1.465       .  S
C645        C729   1.480       .  S
C645        C731   1.496       .  S
C645        C733   1.514       .  S
C646        C718   1.469       .  S
C646        C720   1.485       .  S
C646        C721   1.480       .  S
C646        C723   1.514       .  S
C647        C711   1.475       .  S
C647        C714   1.466       .  S
C647        C716   1.455       .  S
C647        C734   1.515       .  S
C648        C705   1.473       .  S
C648        C707   1.460       .  S
C648        C709   1.458       .  S
C648        C724   1.522       .  S
O650        C651   1.275       .  A
C651        O687   1.277       .  A
C651        C715   1.427       .  S
O652        C685   1.279       .  A
C654        O669   1.270       .  A
C654        O702   1.280       .  A
C654        C706   1.431       .  S
O655        C657   1.278       .  A
O655       Ti658   2.146       .  S
C656        O691   1.261       .  A
C656        O677   1.263       .  A
C656        C732   1.460       .  S
C657        O670   1.268       .  A
C657        C710   1.424       .  S
Ti658       O671   2.164       .  S
Ti658       O660   2.156   1_655  S
Ti658       O677   2.122       .  S
Ti659       O699   2.149       .  S
Ti659       O678   2.173       .  S
Ti659       O676   2.158       .  S
Ti659       O673   2.117       .  S
O660       Ti666   2.147   1_455  S
C662        O682   1.277       .  A
C662        O686   1.277       .  A
C662        C708   1.434   1_554  S
C664        O690   1.266       .  A
Ti665       O680   2.154   1_655  S
Ti665       O702   2.153       .  S
Ti666       O670   2.106       .  S
Ti667       O672   2.144       .  S
Ti667       O692   2.132       .  S
Ti667       O695   2.107       .  S
O668        C684   1.267       .  A
O669       Ti703   2.114       .  S
O673        C688   1.260       .  A
O675        C684   1.267       .  A
O676        C679   1.281       .  A
O678       Ti689   2.171       .  S
C679        O693   1.273       .  A
C679        C712   1.440       .  S
O680       Ti703   2.143   1_455  S
O681        C683   1.267       .  A
C683        O698   1.267       .  A
C683        C730   1.447       .  S
C684        C727   1.433       .  S
C685        O695   1.267       .  A
C685        C713   1.428       .  S
C688        O700   1.259       .  A
C688        C719   1.452       .  S
Ti689       O700   2.120       .  S
O690       Ti697   2.124       .  S
O692        C701   1.268       .  A
O693       Ti697   2.128       .  S
Ti697       O699   2.140       .  S
C705        C706   1.205       .  T
C707        C708   1.206       .  T
C709        C710   1.201       .  T
C711        C712   1.210       .  T
C713        C714   1.203       .  T
C715        C716   1.202       .  T
C717        C718   1.206       .  T
C719        C720   1.216       .  T
C721        C722   1.214       .  T
C723        C724   1.351       .  D
C723        H725   1.087       .  S
C724        H726   1.087       .  S
C727        C728   1.206       .  T
C729        C730   1.214       .  T
C731        C732   1.221       .  T
C733        C734   1.351       .  D
C733        H735   1.089       .  S
C734        H736   1.085       .  S
