geometry optimzed in LAMMPS
_audit_creation_date              2020-11-30 
_audit_creation_method            'lammps2cif' 
_symmetry_space_group_name_H-M    'P1' 
_symmetry_Int_Tables_number       1 
_symmetry_cell_setting            triclinic 
loop_ 
_symmetry_equiv_pos_as_xyz 
  x,y,z 
_cell_length_a                    39.05894499 
_cell_length_b                    39.01905802815314 
_cell_length_c                    27.680463977634993 
_cell_angle_alpha                 89.78870644212563 
_cell_angle_beta                  89.44775548016439 
_cell_angle_gamma                 89.45682019421318 
loop_ 
_atom_site_label 
_atom_site_type_symbol 
_atom_site_fract_x 
_atom_site_fract_y 
_atom_site_fract_z 
_atom_site_charge 
C1          C  0.88113141  0.37762516  0.04861029     0.30700
C2          C  0.87933985  0.37752542  0.27681079     0.30700
C3          C  0.91390113  0.38767218  0.02074311    -0.05500
C4          C  0.87322855  0.34301742  0.02214165    -0.06300
C5          C  0.85529838  0.40269509  0.02328987    -0.06100
C6          C  0.91316016  0.38874148  0.30261983    -0.05500
C7          C  0.87305917  0.34299780  0.30354109    -0.06300
C8          C  0.85215929  0.39944581  0.30463067    -0.06100
C9          C  0.94396129  0.40316715  0.28832786    -0.31500
N10         N  0.96210731  0.41173761  0.99453378     0.15000
C11         C  0.94453513  0.40137862  0.03450931    -0.31500
H12         H  0.95213515  0.40574840  0.07135768     0.16900
C13         C  0.87053368  0.30921806  0.28932756    -0.30500
N14         N  0.87109839  0.28866127  0.99647284     0.13700
C15         C  0.87155229  0.30906504  0.03617054    -0.30500
C16         C  0.81710801  0.39818886  0.29904152    -0.30800
N17         N  0.80032391  0.40990563  0.33799500     0.14200
H18         H  0.80496551  0.37901325  0.27789994     0.16800
C19         C  0.82401195  0.41425972  0.04073150    -0.30800
H20         H  0.81790756  0.41915699  0.07778191     0.16800
H21         H  0.87316156  0.29965244  0.07252250     0.16800
H22         H  0.95135153  0.40883897  0.25148605     0.16900
H23         H  0.87053759  0.29986881  0.25258675     0.16800
C24         C  0.88145103  0.37772118  0.11014196     0.30700
C25         C  0.87895204  0.37901600  0.21458191     0.30700
C26         C  0.88372047  0.41338185  0.13619416    -0.05500
C27         C  0.84964706  0.36154903  0.13553224    -0.06300
C28         C  0.90997507  0.35816922  0.13736793    -0.06100
C29         C  0.88293684  0.41375844  0.18805742    -0.05500
C30         C  0.84648925  0.36634571  0.18680478    -0.06300
C31         C  0.90846328  0.35824931  0.18913317    -0.06100
C32         C  0.89899139  0.44320176  0.20232500    -0.31500
N33         N  0.91075345  0.46023505  0.16282032     0.15000
C34         C  0.90094472  0.44273028  0.12284202    -0.31500
H35         H  0.90918530  0.44853680  0.08647519     0.16900
C36         C  0.81267092  0.37833327  0.19017617    -0.30500
N37         N  0.79477063  0.37144009  0.15023225     0.13700
C38         C  0.81713612  0.35973869  0.11705167    -0.30500
C39         C  0.92463945  0.32838686  0.20362311    -0.30800
N40         N  0.93378172  0.30965025  0.16451716     0.14200
H41         H  0.92542324  0.31849521  0.23998722     0.16800
C42         C  0.92638700  0.32824160  0.12455366    -0.30800
H43         H  0.92756851  0.31802102  0.08850874     0.16800
H44         H  0.81103942  0.35602782  0.07982875     0.16800
H45         H  0.90532208  0.44932895  0.23911459     0.16900
H46         H  0.80436557  0.39946734  0.21201323     0.16800
C47         C  0.51169891  0.87671981  0.27912186     0.30700
C48         C  0.51527965  0.87646663  0.05064375     0.30700
C49         C  0.47961737  0.88919925  0.30768732    -0.05500
C50         C  0.51764134  0.84143621  0.30544396    -0.06300
C51         C  0.53906327  0.89961422  0.30383375    -0.06100
C52         C  0.48164490  0.88917607  0.02579612    -0.05500
C53         C  0.52002506  0.84142492  0.02371446    -0.06300
C54         C  0.54346072  0.89697193  0.02169969    -0.06100
C55         C  0.45105343  0.90323187  0.04214319    -0.31500
N56         N  0.43179865  0.91307526  0.00368956     0.15000
C57         C  0.44826311  0.90329436  0.29567224    -0.31500
H58         H  0.43947649  0.90791690  0.25932422     0.16900
C59         C  0.52146373  0.80686956  0.03647445    -0.30500
N60         N  0.52021699  0.78734470  0.99582730     0.13700
C61         C  0.51760973  0.80782981  0.29050641    -0.30500
C62         C  0.57921339  0.89423633  0.02429355    -0.30800
N63         N  0.59480100  0.90596450  0.98404226     0.14200
H64         H  0.59271133  0.87594779  0.04610166     0.16800
C65         C  0.57009184  0.90983916  0.28475127    -0.30800
H66         H  0.57490692  0.91622965  0.24768097     0.16800
H67         H  0.51572249  0.79952593  0.25395984     0.16800
H68         H  0.44409920  0.90749294  0.07947969     0.16900
H69         H  0.52086505  0.79658762  0.07272555     0.16800
C70         C  0.51192028  0.87680527  0.21756992     0.30700
C71         C  0.51420117  0.87891562  0.11290440     0.30700
C72         C  0.50917416  0.91264965  0.19221189    -0.05500
C73         C  0.54411141  0.86090244  0.19143691    -0.06300
C74         C  0.48343441  0.85784659  0.19000174    -0.06100
C75         C  0.50949024  0.91386216  0.14024844    -0.05500
C76         C  0.54624576  0.86535796  0.14012584    -0.06300
C77         C  0.48508116  0.85818890  0.13822174    -0.06100
C78         C  0.49171758  0.94363539  0.12821698    -0.31500
N79         N  0.48061693  0.96000599  0.16902027     0.15000
C80         C  0.49197370  0.94177651  0.20757954    -0.31500
H81         H  0.48504579  0.94720080  0.24454032     0.16900
C82         C  0.57991160  0.87503899  0.13362177    -0.30500
N83         N  0.59912439  0.86688152  0.17186559     0.13700
C84         C  0.57744579  0.85747611  0.20759375    -0.30500
C85         C  0.46851993  0.82906919  0.12333594    -0.30800
N86         N  0.45882420  0.81057919  0.16238451     0.14200
H87         H  0.46742878  0.81957679  0.08690364     0.16800
C88         C  0.46603219  0.82864309  0.20254069    -0.30800
H89         H  0.46296336  0.81879679  0.23863292     0.16800
H90         H  0.58486439  0.85317647  0.24422198     0.16800
H91         H  0.48449830  0.95084492  0.09204761     0.16900
H92         H  0.58733818  0.89641592  0.11175901     0.16800
Zn93       Zn  0.90229950  0.95885154  0.01206919     1.49700
Zn94       Zn  0.93216123  0.89788141  0.28613025     1.49400
Zn95       Zn  0.97964093  0.97331281  0.32518243     1.49100
Zn96       Zn  0.97406627  0.90530083  0.05053523     1.49500
O97         O  0.94830880  0.93204549  0.00138563    -1.83400
O98         O  0.86049733  0.94580471  0.97970802    -0.74000
O99         O  0.97064336  0.91415211  0.24202699    -0.73900
O100        O  0.95733759  0.02295354  0.33034542    -0.73400
O101        O  0.87701802  0.89784226  0.27466227    -0.74100
O102        O  0.90461449  0.01216026  0.00522059    -0.73700
O103        O  0.00002842  0.95883911  0.26313934    -0.74200
O104        O  0.02614975  0.92214975  0.06064564    -0.73600
O105        O  0.94362306  0.85001659  0.30520647    -0.74400
O106        O  0.02341930  0.97451984  0.35957434    -0.73800
O107        O  0.97723300  0.85576740  0.03620740    -0.71400
O108        O  0.93410675  0.90813050  0.09741461    -0.74200
O109        O  0.88978219  0.93839207  0.07478360    -0.73900
C110        C  0.85356577  0.91929239  0.95611729     0.77800
C111        C  0.97235432  0.94595247  0.25022553     0.78300
C112        C  0.92893803  0.03377844  0.00131895     0.77300
C113        C  0.04192612  0.94968382  0.04813173     0.77700
C114        C  0.96261812  0.83730612  0.00522398     0.78800
C115        C  0.92048349  0.93670785  0.08732468     0.77900
Zn116      Zn  0.90532722  0.98554866  0.14635240     1.49700
Zn117      Zn  0.96962093  0.99691721  0.19076917     1.49400
Zn118      Zn  0.91809165  0.91945328  0.19939747     1.49100
Zn119      Zn  0.98336002  0.93329232  0.13415566     1.49500
O120        O  0.94523728  0.95479156  0.16776585    -1.83400
O121        O  0.90291370  0.03347562  0.17429584    -0.74000
O122        O  0.94273786  0.99839982  0.25090178    -0.73900
O123        O  0.87160065  0.91181386  0.17401199    -0.73400
O124        O  0.95734673  0.03991329  0.15624270    -0.74100
O125        O  0.85618754  0.96205617  0.14481013    -0.73700
O126        O  0.91250385  0.95164742  0.25547951    -0.74200
O127        O  0.98278800  0.87957405  0.13922225    -0.73600
O128        O  0.02297917  0.99431497  0.19590866    -0.74400
O129        O  0.94141923  0.87040943  0.19401840    -0.73800
O130        O  0.02876396  0.94482750  0.15924237    -0.74200
O131        O  0.97383742  0.96383927  0.07813406    -0.74200
O132        O  0.92782127  0.99571155  0.08440620    -0.73900
C133        C  0.92783727  0.05296631  0.16337193     0.77800
C134        C  0.94103900  0.96639238  0.25714110     0.78300
C135        C  0.84883006  0.93093719  0.15583391     0.77300
C136        C  0.96561891  0.85918467  0.16641137     0.77700
C137        C  0.04188463  0.96923168  0.18212702     0.78800
C138        C  0.94165609  0.96679502  0.07842448     0.77900
C139        C  0.02004326  0.51675427  0.27867452     0.30700
C140        C  0.01987544  0.51568517  0.04988358     0.30700
C141        C  0.01940164  0.48113881  0.30440404    -0.05500
C142        C  0.05065938  0.53352150  0.30543454    -0.06300
C143        C  0.98948365  0.53461293  0.30573593    -0.06100
C144        C  0.01882229  0.48067081  0.02255765    -0.05500
C145        C  0.05019291  0.53322043  0.02343390    -0.06300
C146        C  0.98946885  0.53409517  0.02491220    -0.06100
C147        C  0.00092948  0.45150034  0.03524393    -0.31500
N148        N  0.98972918  0.43518618  0.99508035     0.15000
C149        C  0.00192602  0.45236658  0.28996493    -0.31500
H150        H  0.99433640  0.44734419  0.25333497     0.16900
C151        C  0.08341872  0.53831815  0.03778450    -0.30500
N152        N  0.10432190  0.53901215  0.33266917     0.13700
C153        C  0.08468128  0.53704882  0.29260435    -0.30500
C154        C  0.97213190  0.56258565  0.04096172    -0.30800
N155        N  0.96313800  0.58235515  0.00300959     0.14200
H156        H  0.97148099  0.57134214  0.07792470     0.16800
C157        C  0.97216546  0.56438737  0.29389456    -0.30800
H158        H  0.97204653  0.57599433  0.25839573     0.16800
H159        H  0.09485810  0.53435279  0.25675390     0.16800
H160        H  0.99284993  0.44546128  0.07163425     0.16900
H161        H  0.09269210  0.53687272  0.07435485     0.16800
C162        C  0.02007630  0.51688890  0.21670830     0.30700
C163        C  0.02058185  0.51620915  0.11146235     0.30700
C164        C  0.98643772  0.50743322  0.19000003    -0.05500
C165        C  0.02877490  0.55084848  0.18909644    -0.06300
C166        C  0.04535877  0.49180721  0.19036718    -0.06100
C167        C  0.98687481  0.50725797  0.13850809    -0.05500
C168        C  0.02888094  0.55057722  0.13746523    -0.06300
C169        C  0.04592024  0.49160197  0.13830953    -0.06100
C170        C  0.95642536  0.49354336  0.12399059    -0.31500
N171        N  0.93791301  0.48409764  0.16358360     0.15000
C172        C  0.95555609  0.49329561  0.20379005    -0.31500
H173        H  0.94798895  0.48757541  0.24055153     0.16900
C174        C  0.02949786  0.58454066  0.12277349    -0.30500
N175        N  0.02932575  0.60522149  0.16221346     0.13700
C176        C  0.02952678  0.58489272  0.20227872    -0.30500
C177        C  0.07853323  0.48062791  0.12522594    -0.30800
N178        N  0.09734107  0.47498532  0.16537390     0.14200
H179        H  0.08918688  0.48055100  0.08908779     0.16800
C180        C  0.07712689  0.48022638  0.20461721    -0.30800
H181        H  0.08633774  0.47946950  0.24119837     0.16800
H182        H  0.02810994  0.59423254  0.23867865     0.16800
H183        H  0.94967388  0.48827647  0.08705494     0.16900
H184        H  0.02680756  0.59362709  0.08605000     0.16800
C185        C  0.37135279  0.01851934  0.06017071     0.30700
C186        C  0.36985273  0.01795574  0.28910589     0.30700
C187        C  0.37493860  0.98314117  0.03361053    -0.05500
C188        C  0.33948374  0.03373529  0.03407887    -0.06300
C189        C  0.40005600  0.03852678  0.03316532    -0.06100
C190        C  0.37333006  0.98259295  0.31505811    -0.05500
C191        C  0.33726712  0.03247895  0.31640900    -0.06300
C192        C  0.39869329  0.03750187  0.31505763    -0.06100
C193        C  0.39102501  0.95374276  0.30003246    -0.31500
N194        N  0.40408196  0.93693598  0.00567353     0.15000
C195        C  0.39328324  0.95383348  0.04613993    -0.31500
H196        H  0.40139595  0.94755866  0.08226987     0.16900
C197        C  0.30239206  0.03179966  0.30532662    -0.30500
N198        N  0.28458251  0.03259456  0.01177719     0.13700
C199        C  0.30603542  0.03479734  0.04960056    -0.30500
C200        C  0.41492094  0.06700773  0.30072260    -0.30800
N201        N  0.42470201  0.08656699  0.00640929     0.14200
H202        H  0.41590507  0.07701268  0.26434985     0.16800
C203        C  0.41600161  0.06828734  0.04627317    -0.30800
H204        H  0.41650691  0.07843336  0.08233252     0.16800
H205        H  0.29793319  0.03311179  0.08648875     0.16800
H206        H  0.39819984  0.94849579  0.26306447     0.16900
H207        H  0.29169362  0.02837375  0.26988356     0.16800
C208        C  0.37140649  0.01906920  0.22745863     0.30700
C209        C  0.37081629  0.01922642  0.12214798     0.30700
C210        C  0.40561497  0.01035061  0.19966248    -0.05500
C211        C  0.34769449  0.99365172  0.20171027    -0.06300
C212        C  0.36130953  0.05335564  0.20083962    -0.06100
C213        C  0.40513847  0.01074003  0.14801342    -0.05500
C214        C  0.34666737  0.99379949  0.15004985    -0.06300
C215        C  0.36123098  0.05340150  0.14913331    -0.06100
C216        C  0.43533497  0.99567985  0.13236727    -0.31500
N217        N  0.45361992  0.98476342  0.17113663     0.15000
C218        C  0.43613005  0.99430007  0.21205609    -0.31500
H219        H  0.44346789  0.98757501  0.24841141     0.16900
C220        C  0.31533808  0.97949572  0.13909722    -0.30500
N221        N  0.29803370  0.97164023  0.18050418     0.13700
C222        C  0.31854108  0.97799129  0.21819596    -0.30500
C223        C  0.35978508  0.08757738  0.13517746    -0.30800
N224        N  0.35999275  0.10820846  0.17477166     0.14200
H225        H  0.36121081  0.09688086  0.09857925     0.16800
C226        C  0.35990039  0.08767045  0.21466737    -0.30800
H227        H  0.36159348  0.09717523  0.25119912     0.16800
H228        H  0.31064405  0.97534708  0.25547729     0.16800
H229        H  0.44197048  0.99044321  0.09516898     0.16900
H230        H  0.30431085  0.97820902  0.10382620     0.16800
Zn231      Zn  0.47032254  0.39161575  0.30283921     1.49700
Zn232      Zn  0.48725301  0.46525916  0.99912719     1.49400
Zn233      Zn  0.41442971  0.46614704  0.28735528     1.49100
Zn234      Zn  0.41371862  0.41364690  0.03516614     1.49500
O235        O  0.44411693  0.43494812  0.32321910    -1.83400
O236        O  0.52504348  0.39519962  0.30217091    -0.74000
O237        O  0.48282069  0.51624429  0.99041779    -0.73900
O238        O  0.40976635  0.43068107  0.23307914    -0.73400
O239        O  0.52998657  0.45565341  0.96495869    -0.74100
O240        O  0.44200572  0.38458217  0.24286551    -0.73700
O241        O  0.43413239  0.51835131  0.28668179    -0.74200
O242        O  0.36397080  0.43596329  0.04329228    -0.73600
O243        O  0.49747029  0.44664524  0.06243910    -0.74400
O244        O  0.36821842  0.47037107  0.31596473    -0.73800
O245        O  0.45251321  0.41615008  0.08175037    -0.74200
O246        O  0.40726442  0.36405740  0.01667758    -0.74200
O247        O  0.46087212  0.35035835  0.34256403    -0.73900
C248        C  0.54396038  0.42186817  0.29991539     0.77800
C249        C  0.46178066  0.53198780  0.30261390     0.78300
C250        C  0.43887650  0.41631077  0.23376930     0.77300
C251        C  0.35074794  0.45760062  0.35020996     0.77700
C252        C  0.46645197  0.44497692  0.07435382     0.78800
C253        C  0.43041673  0.34073301  0.34989106     0.77900
Zn254      Zn  0.48330665  0.49080613  0.13454850     1.49700
Zn255      Zn  0.47721896  0.41529673  0.16313540     1.49400
Zn256      Zn  0.42819445  0.48741515  0.20818608     1.49100
Zn257      Zn  0.40505510  0.44201979  0.12284360     1.49500
O258        O  0.44549295  0.45848211  0.15804676    -1.83400
O259        O  0.53328449  0.46778649  0.13562240    -0.74000
O260        O  0.49719675  0.42332361  0.22662400    -0.73900
O261        O  0.43256488  0.53640976  0.19144365    -0.73400
O262        O  0.52274690  0.41211578  0.13151216    -0.74100
O263        O  0.48518121  0.53765369  0.16393077    -0.73700
O264        O  0.46758835  0.46905129  0.24675983    -0.74200
O265        O  0.36175304  0.45864247  0.15189172    -0.73600
O266        O  0.45063392  0.36983648  0.15508946    -0.74400
O267        O  0.37543968  0.48428034  0.22036194    -0.73800
O268        O  0.40072419  0.38687315  0.12497672    -0.74200
O269        O  0.41342286  0.47354651  0.06565723    -0.74200
O270        O  0.45987155  0.50413733  0.07288974    -0.73900
C271        C  0.54397110  0.43655913  0.13195475     0.77800
C272        C  0.46943727  0.43702966  0.23894299     0.78300
C273        C  0.45816902  0.55332659  0.17765186     0.77300
C274        C  0.35314730  0.47361610  0.19069806     0.77700
C275        C  0.42030155  0.36276439  0.14127522     0.78800
C276        C  0.44562927  0.47567302  0.06652749     0.77900
C277        C  0.36886360  0.27744519  0.13677634    -0.21700
C278        C  0.38945120  0.25512774  0.16467183     0.10200
C279        C  0.41947454  0.26905917  0.18507423     0.10600
C280        C  0.42888780  0.30319272  0.17477387    -0.16700
C281        C  0.40824955  0.32585468  0.14739996    -0.27100
C282        C  0.37679841  0.31267269  0.13001886     0.19000
C283        C  0.38076965  0.21718455  0.16903587     0.12900
C284        C  0.44202698  0.24912120  0.21929817    -0.11400
H285        H  0.45238826  0.31247712  0.19032636     0.13200
C286        C  0.35079713  0.33533551  0.10544631    -0.22300
H287        H  0.34630222  0.26728013  0.11980783     0.08800
C288        C  0.34897290  0.20476751  0.18725003     0.05200
C289        C  0.34270264  0.16892976  0.18896434    -0.19500
C290        C  0.36756442  0.14474780  0.17417235    -0.11800
C291        C  0.39994711  0.15707504  0.15904042     0.13900
C292        C  0.40560528  0.19262911  0.15520431    -0.22200
C293        C  0.32202375  0.22890419  0.20695541    -0.05300
H294        H  0.31824157  0.15965107  0.20201268     0.15400
C295        C  0.42983199  0.13347019  0.14898963    -0.15500
H296        H  0.43028097  0.20126657  0.14252987     0.09700
H297        H  0.32775470  0.32083981  0.09475432     0.07600
H298        H  0.36180510  0.34683473  0.07237720     0.08800
H299        H  0.34224794  0.35596409  0.13044309     0.07800
H300        H  0.46744003  0.24442052  0.20219872     0.02700
H301        H  0.43093990  0.22430536  0.23059425     0.03200
H302        H  0.44581490  0.26424967  0.25266388     0.06700
H303        H  0.30014457  0.21481655  0.22316836     0.05700
H304        H  0.31167828  0.24546815  0.17790814    -0.00100
H305        H  0.33319247  0.24504800  0.23552040     0.01400
H306        H  0.43800679  0.13607141  0.11066356     0.05100
H307        H  0.42406150  0.10628451  0.15685389     0.07000
H308        H  0.45154775  0.14061401  0.17239800     0.07900
C309        C  0.44700683  0.17746763  0.32154097    -0.21700
C310        C  0.42308948  0.19553651  0.00899197     0.10200
C311        C  0.39397766  0.17665442  0.02324471     0.10600
C312        C  0.39526914  0.14087784  0.02092640    -0.16700
C313        C  0.42228947  0.12218028  0.33929172    -0.27100
C314        C  0.44952903  0.14161058  0.32058546     0.19000
C315        C  0.42413194  0.23340196  0.01401508     0.12900
C316        C  0.36171102  0.19380308  0.04184153    -0.11400
H317        H  0.37280959  0.12627555  0.03048809     0.13200
C318        C  0.48157105  0.12526184  0.30035613    -0.22300
H319        H  0.46818102  0.19258111  0.30790593     0.08800
C320        C  0.44855703  0.24971765  0.04338873     0.05200
C321        C  0.44963380  0.28552320  0.04439073    -0.19500
C322        C  0.42363027  0.30376197  0.35286036    -0.11800
C323        C  0.39643915  0.28836324  0.32786222     0.13900
C324        C  0.39492718  0.25249111  0.32580526    -0.22200
C325        C  0.47416207  0.23052992  0.07393730    -0.05300
H326        H  0.46884841  0.29791988  0.06613333     0.15400
C327        C  0.37043764  0.30942234  0.30055007    -0.15500
H328        H  0.37562700  0.24060794  0.30382602     0.09700
H329        H  0.50403501  0.13412170  0.32100184     0.07600
H330        H  0.48479810  0.13286898  0.26189972     0.08800
H331        H  0.48107048  0.09688541  0.30231813     0.07800
H332        H  0.34886100  0.20800747  0.01229570     0.02700
H333        H  0.36785451  0.21186245  0.07119090     0.03200
H334        H  0.34319450  0.17487070  0.05643578     0.06700
H335        H  0.47241449  0.23982349  0.11171837     0.05700
H336        H  0.50041498  0.23546398  0.06003084    -0.00100
H337        H  0.47007252  0.20250827  0.07478003     0.01400
H338        H  0.35179407  0.29307951  0.28162307     0.05100
H339        H  0.38355358  0.32552570  0.27301129     0.07000
H340        H  0.35573692  0.32602646  0.32589073     0.07900
C341        C  0.18662949  0.50675049  0.18404059    -0.21700
C342        C  0.20641479  0.47692217  0.17678927     0.10200
C343        C  0.18924907  0.44627293  0.16365766     0.10600
C344        C  0.15331882  0.44629776  0.16035400    -0.16700
C345        C  0.13411050  0.47631093  0.16686413    -0.27100
C346        C  0.15126262  0.50731444  0.17624928     0.19000
C347        C  0.24439650  0.47873573  0.18433120     0.12900
C348        C  0.20738788  0.41304351  0.15208208    -0.11400
H349        H  0.14011353  0.42276500  0.15204408     0.13200
C350        C  0.13349275  0.54172246  0.17596363    -0.22300
H351        H  0.19902913  0.53029316  0.19446117     0.08800
C352        C  0.26516466  0.50455318  0.16289481     0.05200
C353        C  0.30044756  0.50477126  0.17188460    -0.19500
C354        C  0.31622550  0.47882581  0.19893824    -0.11800
C355        C  0.29580679  0.45335749  0.22077826     0.13900
C356        C  0.26014265  0.45470666  0.21520830    -0.22200
C357        C  0.25195296  0.53108550  0.12787414    -0.05300
H358        H  0.31632132  0.52363957  0.15376245     0.15400
C359        C  0.31091136  0.42312581  0.24732184    -0.15500
H360        H  0.24472295  0.43533752  0.23277317     0.09700
H361        H  0.14443704  0.55760631  0.14640454     0.07600
H362        H  0.13799162  0.55509694  0.21060232     0.08800
H363        H  0.10560113  0.54002111  0.16984695     0.07800
H364        H  0.19942503  0.39305650  0.17842961     0.02700
H365        H  0.23546862  0.41491875  0.15281917     0.03200
H366        H  0.20038185  0.40469246  0.11518724     0.06700
H367        H  0.26865901  0.53166870  0.09521503     0.05700
H368        H  0.25238235  0.55676578  0.14496156    -0.00100
H369        H  0.22582343  0.52570107  0.11530379     0.01400
H370        H  0.29947284  0.42144203  0.28405768     0.05100
H371        H  0.33907234  0.42470013  0.25096959     0.07000
H372        H  0.30495718  0.39922421  0.22758248     0.07900
C373        C  0.19856867  0.53909407  0.02381759    -0.21700
C374        C  0.20819867  0.50437462  0.34444469     0.10200
C375        C  0.18285096  0.48321794  0.32405456     0.10600
C376        C  0.14922223  0.49579299  0.31944311    -0.16700
C377        C  0.13985589  0.52886849  0.33466612    -0.27100
C378        C  0.16478350  0.55137072  0.01922236     0.19000
C379        C  0.24492179  0.49326043  0.34853547     0.12900
C380        C  0.18999664  0.44737315  0.30636941    -0.11400
H381        H  0.12981410  0.47935040  0.30454551     0.13200
C382        C  0.15671069  0.58750849  0.03469152    -0.22300
H383        H  0.21768136  0.55589782  0.03866858     0.08800
C384        C  0.27103245  0.51047577  0.32289960     0.05200
C385        C  0.30511488  0.49947346  0.32757756    -0.19500
C386        C  0.31437891  0.47027231  0.35504164    -0.11800
C387        C  0.28809476  0.45473275  0.04692563     0.13900
C388        C  0.25395687  0.46705314  0.04439127    -0.22200
C389        C  0.26303306  0.53945799  0.28839643    -0.05300
H390        H  0.32460846  0.51330557  0.30761924     0.15400
C391        C  0.29555031  0.42279212  0.07567069    -0.15500
H392        H  0.23403060  0.45444680  0.06511873     0.09700
H393        H  0.17274198  0.60559562  0.01349050     0.07600
H394        H  0.16251806  0.59051010  0.07360425     0.08800
H395        H  0.12949130  0.59467114  0.02907786     0.07800
H396        H  0.17461694  0.42894213  0.32793910     0.02700
H397        H  0.21720833  0.43967091  0.30885290     0.03200
H398        H  0.18249981  0.44535154  0.26795566     0.06700
H399        H  0.28613241  0.54784711  0.26801838     0.05700
H400        H  0.25289272  0.56200358  0.30828915    -0.00100
H401        H  0.24385000  0.53102467  0.26175625     0.01400
H402        H  0.27191333  0.41153191  0.09085884     0.05100
H403        H  0.31289740  0.42867709  0.10589828     0.07000
H404        H  0.30743764  0.40302502  0.05196357     0.07900
C405        C  0.13550635  0.93979581  0.18708497    -0.21700
C406        C  0.15143571  0.96861802  0.20626892     0.10200
C407        C  0.13058569  0.99661589  0.22158957     0.10600
C408        C  0.09508804  0.99598568  0.21373246    -0.16700
C409        C  0.07930383  0.96752781  0.19293443    -0.27100
C410        C  0.09990326  0.93805287  0.18238956     0.19000
C411        C  0.18971340  0.96976342  0.20426349     0.12900
C412        C  0.14458950  0.02771271  0.24615664    -0.11400
H413        H  0.07972914  0.01818481  0.22370766     0.13200
C414        C  0.08526977  0.90412405  0.16698644    -0.22300
H415        H  0.15121764  0.91840618  0.17493748     0.08800
C416        C  0.21098761  0.94229553  0.22023065     0.05200
C417        C  0.24623145  0.94257293  0.20912592    -0.19500
C418        C  0.26134856  0.97075302  0.18611946    -0.11800
C419        C  0.24068167  0.99987775  0.17593118     0.13900
C420        C  0.20515041  0.99787702  0.18147566    -0.22200
C421        C  0.19783002  0.91302651  0.25060510    -0.05300
H422        H  0.26237970  0.92130919  0.22034839     0.15400
C423        C  0.25499104  0.03448650  0.16348088    -0.15500
H424        H  0.18948602  0.01928676  0.16965318     0.09700
H425        H  0.10525739  0.88375083  0.16441659     0.07600
H426        H  0.07356072  0.90628013  0.13084460     0.08800
H427        H  0.06598558  0.89541664  0.19399142     0.07800
H428        H  0.14138187  0.05052676  0.22248829     0.02700
H429        H  0.17195119  0.02477457  0.25539607     0.03200
H430        H  0.13005859  0.03214459  0.28023103     0.06700
H431        H  0.21269972  0.91138851  0.28455417     0.05700
H432        H  0.20100773  0.88861291  0.23051391    -0.00100
H433        H  0.17057998  0.91620259  0.26117010     0.01400
H434        H  0.24652382  0.04225658  0.12684566     0.05100
H435        H  0.28318907  0.03542200  0.16585502     0.07000
H436        H  0.24502114  0.05364161  0.18980368     0.07900
C437        C  0.96131237  0.76212590  0.14566133    -0.21700
C438        C  0.99306418  0.75053146  0.16352289     0.10200
C439        C  0.01563554  0.77540224  0.18253790     0.10600
C440        C  0.00596996  0.81044439  0.18274958    -0.16700
C441        C  0.97402917  0.82168297  0.16560938    -0.27100
C442        C  0.95131548  0.79697578  0.14718555     0.19000
C443        C  0.00170775  0.71254778  0.16243782     0.12900
C444        C  0.04970275  0.76541245  0.20385868    -0.11400
H445        H  0.02341340  0.82929443  0.19690113     0.13200
C446        C  0.91650168  0.80645091  0.12797098    -0.22300
H447        H  0.94423371  0.74390105  0.12932598     0.08800
C448        C  0.98085942  0.68769192  0.18576580     0.05200
C449        C  0.99083260  0.65284248  0.18560219    -0.19500
C450        C  0.02074048  0.64149264  0.16186938    -0.11800
C451        C  0.04117907  0.66587346  0.13755684     0.13900
C452        C  0.03147315  0.70087657  0.13808662    -0.22200
C453        C  0.94855244  0.69764455  0.21247457    -0.05300
H454        H  0.97492199  0.63407422  0.20372441     0.15400
C455        C  0.07383055  0.65512019  0.11233041    -0.15500
H456        H  0.04720770  0.71920603  0.11890981     0.09700
H457        H  0.89647506  0.79358328  0.15002740     0.07600
H458        H  0.91436005  0.79772704  0.09007188     0.08800
H459        H  0.91124655  0.83438878  0.12846768     0.07800
H460        H  0.06722460  0.75533943  0.17551491     0.02700
H461        H  0.04615640  0.74575446  0.23237187     0.03200
H462        H  0.06251432  0.78768201  0.22051707     0.06700
H463        H  0.93811384  0.67590644  0.23385106     0.05700
H464        H  0.92848628  0.70581155  0.18678467    -0.00100
H465        H  0.95391872  0.71887477  0.23764064     0.01400
H466        H  0.06815039  0.63777477  0.08186618     0.05100
H467        H  0.09089166  0.64168341  0.13824597     0.07000
H468        H  0.08779326  0.67750237  0.09738077     0.07900
C469        C  0.13608531  0.95007844  0.36289865    -0.21700
C470        C  0.14844096  0.97854186  0.04839498     0.10200
C471        C  0.12328627  0.99825415  0.07360869     0.10600
C472        C  0.08916450  0.98686867  0.07597268    -0.16700
C473        C  0.07919984  0.95532754  0.05641899    -0.27100
C474        C  0.10227289  0.93765406  0.36587348     0.19000
C475        C  0.18410778  0.99169063  0.03783859     0.12900
C476        C  0.13101359  0.03195789  0.09742590    -0.11400
H477        H  0.06980906  0.00332650  0.09236474     0.13200
C478        C  0.09360189  0.90464272  0.34098373    -0.22300
H479        H  0.15522686  0.93541363  0.34314467     0.08800
C480        C  0.21409607  0.97228322  0.04809890     0.05200
C481        C  0.24647843  0.98568171  0.03610915    -0.19500
C482        C  0.25041527  0.01872953  0.01658507    -0.11800
C483        C  0.21948348  0.03953719  0.34198679     0.13900
C484        C  0.18651780  0.02707345  0.35328256    -0.22200
C485        C  0.21263676  0.93837683  0.07437565    -0.05300
H486        H  0.26916591  0.97035804  0.04256104     0.15400
C487        C  0.22249444  0.07469145  0.32000218    -0.15500
H488        H  0.16453644  0.04311685  0.34534255     0.09700
H489        H  0.11649792  0.89263600  0.32368804     0.07600
H490        H  0.07439184  0.90961798  0.31240924     0.08800
H491        H  0.08298190  0.88620732  0.36770616     0.07800
H492        H  0.11793647  0.05306506  0.07767444     0.02700
H493        H  0.15871316  0.03740316  0.09907615     0.03200
H494        H  0.12132117  0.03178765  0.13511038     0.06700
H495        H  0.23850960  0.92950609  0.08549012     0.05700
H496        H  0.20202079  0.91823901  0.05097990    -0.00100
H497        H  0.19668460  0.94091957  0.10755176     0.01400
H498        H  0.20868685  0.07550342  0.28513593     0.05100
H499        H  0.24943940  0.08202685  0.31295994     0.07000
H500        H  0.21087022  0.09391366  0.34483677     0.07900
C501        C  0.94089474  0.67096272  0.04660646    -0.21700
C502        C  0.96366716  0.68920485  0.34996203     0.10200
C503        C  0.98885480  0.67199569  0.32207398     0.10600
C504        C  0.98685179  0.63662705  0.31701711    -0.16700
C505        C  0.96120775  0.61900897  0.00718217    -0.27100
C506        C  0.93850477  0.63545228  0.03993873     0.19000
C507        C  0.96163325  0.72703485  0.35008136     0.12900
C508        C  0.01787023  0.69048488  0.29715820    -0.11400
H509        H  0.00699779  0.62333498  0.29781976     0.13200
C510        C  0.91123763  0.61648194  0.06761003    -0.22300
H511        H  0.92345364  0.68371086  0.07153779     0.08800
C512        C  0.93359001  0.74495263  0.32968704     0.05200
C513        C  0.93478705  0.78059556  0.32633853    -0.19500
C514        C  0.96441963  0.79974372  0.00978587    -0.11800
C515        C  0.99242321  0.78226021  0.03105685     0.13900
C516        C  0.99095584  0.74664858  0.03639437    -0.22200
C517        C  0.90219106  0.72781574  0.30992611    -0.05300
H518        H  0.91307656  0.79415765  0.31097943     0.15400
C519        C  0.02437676  0.80042527  0.04668201    -0.15500
H520        H  0.01242627  0.73297441  0.05177909     0.09700
H521        H  0.88585517  0.62832555  0.06021364     0.07600
H522        H  0.91637200  0.61815008  0.10692298     0.08800
H523        H  0.90978157  0.58911235  0.05738881     0.07800
H524        H  0.03594182  0.70047707  0.32417967     0.02700
H525        H  0.00769612  0.71199825  0.27528174     0.03200
H526        H  0.03274288  0.67329285  0.27269466     0.06700
H527        H  0.89768548  0.73676909  0.27237376     0.05700
H528        H  0.87955209  0.73497428  0.33239126    -0.00100
H529        H  0.90415411  0.69957388  0.30856700     0.01400
H530        H  0.04431600  0.78211469  0.05942588     0.05100
H531        H  0.01849623  0.81798858  0.07708621     0.07000
H532        H  0.03528043  0.81511573  0.01583664     0.07900
C533        C  0.48383151  0.71852980  0.17768490    -0.21700
C534        C  0.45341256  0.70180743  0.16655611     0.10200
C535        C  0.42435806  0.72163090  0.15275803     0.10600
C536        C  0.42655554  0.75761833  0.15236705    -0.16700
C537        C  0.45743691  0.77387343  0.16225159    -0.27100
C538        C  0.48701158  0.75375192  0.17160250     0.19000
C539        C  0.45397144  0.66369319  0.16755898     0.12900
C540        C  0.39149978  0.70543753  0.13665002    -0.11400
H541        H  0.40437902  0.77320330  0.14347023     0.13200
C542        C  0.52281993  0.76767512  0.17106359    -0.22300
H543        H  0.50617674  0.70361309  0.18805180     0.08800
C544        C  0.48013946  0.64436560  0.14408915     0.05200
C545        C  0.48166978  0.60886525  0.15058889    -0.19500
C546        C  0.45611769  0.59135164  0.17625426    -0.11800
C547        C  0.42875367  0.61056373  0.19753598     0.13900
C548        C  0.42953947  0.64644429  0.19555730    -0.22200
C549        C  0.50614235  0.65974954  0.11008055    -0.05300
H550        H  0.50219383  0.59460296  0.13297901     0.15400
C551        C  0.39786004  0.59416584  0.22093406    -0.15500
H552        H  0.41068449  0.66109736  0.21580988     0.09700
H553        H  0.53725770  0.75621546  0.14027455     0.07600
H554        H  0.53632664  0.76017346  0.20461505     0.08800
H555        H  0.52356900  0.79575673  0.16665429     0.07800
H556        H  0.37838849  0.69262563  0.16727251     0.02700
H557        H  0.39685150  0.68658629  0.10766951     0.03200
H558        H  0.37333522  0.72486565  0.12207994     0.06700
H559        H  0.50681463  0.64454286  0.07639575     0.05700
H560        H  0.53189941  0.65863614  0.12665064    -0.00100
H561        H  0.49999067  0.68647372  0.09943757     0.01400
H562        H  0.37970640  0.61353072  0.23598788     0.05100
H563        H  0.40548019  0.57707442  0.25094753     0.07000
H564        H  0.38375245  0.57922976  0.19361413     0.07900
C565        C  0.76871761  0.87590523  0.17229734    -0.21700
C566        C  0.74336241  0.89607303  0.15032838     0.10200
C567        C  0.75403529  0.92539016  0.12378218     0.10600
C568        C  0.78837111  0.93610316  0.12567514    -0.16700
C569        C  0.81352551  0.91650037  0.14926499    -0.27100
C570        C  0.80363677  0.88395600  0.16837578     0.19000
C571        C  0.70621459  0.88719502  0.15816888     0.12900
C572        C  0.73045963  0.94519270  0.09120452    -0.11400
H573        H  0.79555039  0.95980604  0.10789609     0.13200
C574        C  0.82904670  0.85668570  0.18365065    -0.22300
H575        H  0.76122081  0.85335692  0.19260037     0.08800
C576        C  0.69309209  0.85347752  0.15315221     0.05200
C577        C  0.65832495  0.84722098  0.16360619    -0.19500
C578        C  0.63528165  0.87390193  0.17433733    -0.11800
C579        C  0.64794078  0.90774588  0.17688409     0.13900
C580        C  0.68329640  0.91341698  0.17235023    -0.22200
C581        C  0.71385797  0.82375191  0.13360578    -0.05300
H582        H  0.64835904  0.82159665  0.15918245     0.15400
C583        C  0.62502043  0.93883722  0.18111914    -0.15500
H584        H  0.69276921  0.93919113  0.17716501     0.09700
H585        H  0.84703921  0.85111833  0.15333408     0.07600
H586        H  0.81625354  0.83226313  0.19333205     0.08800
H587        H  0.84341283  0.86463911  0.21571562     0.07800
H588        H  0.72669050  0.97161513  0.10513203     0.02700
H589        H  0.70525078  0.93288087  0.08671622     0.03200
H590        H  0.74252000  0.94644923  0.05488647     0.06700
H591        H  0.70022848  0.81221108  0.10270743     0.05700
H592        H  0.71701694  0.80400555  0.16224398    -0.00100
H593        H  0.73934557  0.83114577  0.11966803     0.01400
H594        H  0.63026554  0.95252657  0.21524437     0.05100
H595        H  0.59753186  0.93270493  0.17979658     0.07000
H596        H  0.63025959  0.95642769  0.15034820     0.07900
C597        C  0.50526085  0.61913562  0.28396550    -0.21700
C598        C  0.48439799  0.64291982  0.97835220     0.10200
C599        C  0.45471438  0.62895315  0.00121743     0.10600
C600        C  0.44574918  0.59437344  0.99342480    -0.16700
C601        C  0.46815958  0.56988099  0.30037667    -0.27100
C602        C  0.49868895  0.58372647  0.28017913     0.19000
C603        C  0.49490841  0.68014734  0.98367576     0.12900
C604        C  0.43281362  0.64877180  0.03664890    -0.11400
H605        H  0.42342622  0.58406686  0.01176031     0.13200
C606        C  0.52536362  0.56202257  0.25467525    -0.22300
H607        H  0.52787881  0.62940562  0.26636537     0.08800
C608        C  0.52857353  0.69062196  0.99665455     0.05200
C609        C  0.53621832  0.72591714  0.00041395    -0.19500
C610        C  0.50836913  0.75032241  0.32675160    -0.11800
C611        C  0.47570257  0.73931434  0.31170709     0.13900
C612        C  0.46945750  0.70415029  0.30482432    -0.22200
C613        C  0.55713187  0.66576170  0.00840759    -0.05300
H614        H  0.56193111  0.73368419  0.00948564     0.15400
C615        C  0.44627896  0.76389754  0.30448795    -0.15500
H616        H  0.44463207  0.69643999  0.29170974     0.09700
H617        H  0.54958690  0.56254746  0.27531410     0.07600
H618        H  0.53037239  0.57261073  0.21804270     0.08800
H619        H  0.51769882  0.53496356  0.25042600     0.07800
H620        H  0.40706284  0.65329388  0.02112368     0.02700
H621        H  0.44394623  0.67360674  0.04704005     0.03200
H622        H  0.42985546  0.63365320  0.07046809     0.06700
H623        H  0.56787410  0.67212649  0.04424071     0.05700
H624        H  0.57778146  0.66792480  0.98075121    -0.00100
H625        H  0.54884781  0.63879224  0.01057196     0.01400
H626        H  0.43801728  0.76317672  0.26626570     0.05100
H627        H  0.45264576  0.79058022  0.31420473     0.07000
H628        H  0.42446001  0.75613595  0.32797561     0.07900
C629        C  0.68695896  0.87747201  0.29233959    -0.21700
C630        C  0.70439384  0.90971975  0.96465460     0.10200
C631        C  0.68432226  0.93983753  0.97405322     0.10600
C632        C  0.64838619  0.93761156  0.97755732    -0.16700
C633        C  0.63144027  0.90626725  0.97540023    -0.27100
C634        C  0.65150356  0.87446635  0.30102149     0.19000
C635        C  0.74312346  0.90977072  0.95913039     0.12900
C636        C  0.69903669  0.97488126  0.98278280    -0.11400
H637        H  0.63330631  0.96059821  0.98432582     0.13200
C638        C  0.63710242  0.83884287  0.30325108    -0.22300
H639        H  0.70165805  0.85454931  0.28376884     0.08800
C640        C  0.76506479  0.88529355  0.98197044     0.05200
C641        C  0.80081782  0.88601380  0.97326615    -0.19500
C642        C  0.81626556  0.91328007  0.94827102    -0.11800
C643        C  0.79387603  0.93853540  0.26016550     0.13900
C644        C  0.75811976  0.93457210  0.26219353    -0.22200
C645        C  0.75258880  0.86014223  0.01955714    -0.05300
H646        H  0.81710463  0.86739574  0.99130741     0.15400
C647        C  0.80708991  0.97205274  0.24039111    -0.15500
H648        H  0.74209413  0.95296941  0.24335201     0.09700
H649        H  0.65088437  0.82375977  0.33120270     0.07600
H650        H  0.64080812  0.82604435  0.26780325     0.08800
H651        H  0.60959800  0.83837118  0.31298034     0.07800
H652        H  0.69137632  0.99244772  0.95306353     0.02700
H653        H  0.72714797  0.97520382  0.98599721     0.03200
H654        H  0.68867905  0.98520542  0.01735210     0.06700
H655        H  0.76847715  0.86239230  0.05243908     0.05700
H656        H  0.75508423  0.83362607  0.00548292    -0.00100
H657        H  0.72585852  0.86498082  0.03146330     0.01400
H658        H  0.79644422  0.97709105  0.20407544     0.05100
H659        H  0.83535460  0.97278426  0.23739016     0.07000
H660        H  0.79859773  0.99320660  0.26453849     0.07900
C661        C  0.89847697  0.14550614  0.18176377    -0.21700
C662        C  0.92389721  0.16316726  0.15569887     0.10200
C663        C  0.94844473  0.14420616  0.12877989     0.10600
C664        C  0.94832494  0.10842476  0.13138943    -0.16700
C665        C  0.92362843  0.09067208  0.15868876    -0.27100
C666        C  0.89729641  0.10952780  0.18224316     0.19000
C667        C  0.92555175  0.20109590  0.15971155     0.12900
C668        C  0.97531943  0.16058048  0.09703007    -0.11400
H669        H  0.96790604  0.09425214  0.11162575     0.13200
C670        C  0.86840656  0.09218388  0.20881933    -0.22300
H671        H  0.88017635  0.15989028  0.20339760     0.08800
C672        C  0.89799137  0.22243627  0.14556688     0.05200
C673        C  0.90114134  0.25792547  0.15003330    -0.19500
C674        C  0.93182217  0.27293766  0.16463473    -0.11800
C675        C  0.95921505  0.25187023  0.17937149     0.13900
C676        C  0.95554546  0.21612759  0.17762016    -0.22200
C677        C  0.86580949  0.20831698  0.12379883    -0.05300
H678        H  0.87946149  0.27431872  0.14215860     0.15400
C679        C  0.99247541  0.26639128  0.19644839    -0.15500
H680        H  0.97662809  0.19983076  0.18899442     0.09700
H681        H  0.85406070  0.07577728  0.18350904     0.07600
H682        H  0.84980360  0.11097442  0.22384576     0.08800
H683        H  0.87856981  0.07645300  0.23903351     0.07800
H684        H  0.00111395  0.15478411  0.11162768     0.02700
H685        H  0.97228651  0.18872891  0.09389617     0.03200
H686        H  0.97379460  0.14985619  0.06002878     0.06700
H687        H  0.84883574  0.22908860  0.11001382     0.05700
H688        H  0.85096875  0.19371303  0.15108358    -0.00100
H689        H  0.87250009  0.19137309  0.09297466     0.01400
H690        H  0.99725386  0.25776514  0.23407347     0.05100
H691        H  0.99253257  0.29481229  0.19580186     0.07000
H692        H  0.01370740  0.25710147  0.17280609     0.07900
C693        C  0.71501184  0.42454706  0.12850972    -0.21700
C694        C  0.68933816  0.39958886  0.13177638     0.10200
C695        C  0.69981559  0.36464858  0.13739099     0.10600
C696        C  0.73484868  0.35651545  0.14078799    -0.16700
C697        C  0.75983600  0.38185466  0.14165309    -0.27100
C698        C  0.74962526  0.41660687  0.13661162     0.19000
C699        C  0.65242534  0.41107900  0.12973169     0.12900
C700        C  0.67565718  0.33478196  0.14161174    -0.11400
H701        H  0.74282102  0.32999303  0.14508349     0.13200
C702        C  0.77383563  0.44625260  0.14076998    -0.22300
H703        H  0.70802136  0.45084268  0.12056483     0.08800
C704        C  0.63891796  0.43776026  0.15951575     0.05200
C705        C  0.60396498  0.44668872  0.15696275    -0.19500
C706        C  0.58125969  0.42815479  0.12853722    -0.11800
C707        C  0.59438709  0.40041961  0.10072907     0.13900
C708        C  0.62988102  0.39419007  0.09884489    -0.22200
C709        C  0.66025313  0.45583964  0.19644154    -0.05300
H710        H  0.59389550  0.46715680  0.17952739     0.15400
C711        C  0.57132601  0.37627582  0.07434796    -0.15500
H712        H  0.63988076  0.37445152  0.07501332     0.09700
H713        H  0.76500345  0.46329201  0.17052199     0.07600
H714        H  0.77394129  0.46118947  0.10654630     0.08800
H715        H  0.80042568  0.43841349  0.14884828     0.07800
H716        H  0.67916534  0.31781367  0.10979625     0.02700
H717        H  0.64837256  0.34202389  0.14463325     0.03200
H718        H  0.68168070  0.31981266  0.17471831     0.06700
H719        H  0.64384658  0.47067733  0.22195478     0.05700
H720        H  0.67769046  0.47438768  0.17888127    -0.00100
H721        H  0.67523148  0.43695973  0.21779528     0.01400
H722        H  0.58595945  0.35844462  0.05052639     0.05100
H723        H  0.55307305  0.39090229  0.05199431     0.07000
H724        H  0.55675323  0.36060588  0.10085719     0.07900
C725        C  0.92015071  0.20521431  0.00722774    -0.21700
C726        C  0.89430553  0.18070246  0.32517001     0.10200
C727        C  0.86170570  0.19376633  0.31103067     0.10600
C728        C  0.85490689  0.22931459  0.31311999    -0.16700
C729        C  0.87965084  0.25253554  0.99598691    -0.27100
C730        C  0.91298924  0.24059151  0.00713369     0.19000
C731        C  0.90304305  0.14292813  0.32653124     0.12900
C732        C  0.83354718  0.17146575  0.29236296    -0.11400
H733        H  0.82996950  0.23912460  0.30277208     0.13200
C734        C  0.94212954  0.26446477  0.01701986    -0.22300
H735        H  0.94558543  0.19656512  0.01673936     0.08800
C736        C  0.93240047  0.12856619  0.30314996     0.05200
C737        C  0.93964442  0.09323643  0.30769072    -0.19500
C738        C  0.92071005  0.07155103  0.00122461    -0.11800
C739        C  0.89198540  0.08577189  0.02626903     0.13900
C740        C  0.88543023  0.12133898  0.02404183    -0.22200
C741        C  0.95655399  0.14930973  0.27227601    -0.05300
H742        H  0.96203441  0.08274623  0.28936763     0.15400
C743        C  0.86804297  0.06396356  0.05602989    -0.15500
H744        H  0.86405962  0.13204646  0.04440374     0.09700
H745        H  0.96363044  0.25875258  0.99167342     0.07600
H746        H  0.95110034  0.26060190  0.05460884     0.08800
H747        H  0.93521294  0.29177228  0.01171698     0.07800
H748        H  0.81083688  0.17356948  0.31663772     0.02700
H749        H  0.84094972  0.14419599  0.28980331     0.03200
H750        H  0.82626187  0.18017602  0.25559231     0.06700
H751        H  0.96072289  0.13637227  0.23706642     0.05700
H752        H  0.98162745  0.15125049  0.29054689    -0.00100
H753        H  0.94670747  0.17537236  0.26439727     0.01400
H754        H  0.88266861  0.04911365  0.08317359     0.05100
H755        H  0.85398903  0.04622210  0.03226299     0.07000
H756        H  0.84864799  0.07968931  0.07574437     0.07900
C757        C  0.70714349  0.38861040  0.00832794    -0.21700
C758        C  0.69198632  0.41571404  0.32489056     0.10200
C759        C  0.71275065  0.44547341  0.32148241     0.10600
C760        C  0.74778645  0.44299917  0.33183737    -0.16700
C761        C  0.76359315  0.41148489  0.34137304    -0.27100
C762        C  0.74278257  0.38459509  0.01172633     0.19000
C763        C  0.65411549  0.41647897  0.31632413     0.12900
C764        C  0.70001925  0.48004227  0.30441895    -0.11400
H765        H  0.76367203  0.46553126  0.32833509     0.13200
C766        C  0.75672660  0.34851693  0.01367683    -0.22300
H767        H  0.69113462  0.36622386  0.01241218     0.08800
C768        C  0.63700481  0.39287119  0.28601701     0.05200
C769        C  0.60102076  0.39418157  0.28227859    -0.19500
C770        C  0.58190391  0.42037941  0.30437720    -0.11800
C771        C  0.59934828  0.45048816  0.00163472     0.13900
C772        C  0.63458054  0.44691290  0.00965881    -0.22200
C773        C  0.65562689  0.36731433  0.25470016    -0.05300
H774        H  0.58804693  0.37569519  0.25993880     0.15400
C775        C  0.58107840  0.48077481  0.02428675    -0.15500
H776        H  0.64709547  0.46451911  0.03384157     0.09700
H777        H  0.74739564  0.33407010  0.98199072     0.07600
H778        H  0.74763023  0.33550675  0.04699766     0.08800
H779        H  0.78494252  0.34719950  0.01229640     0.07800
H780        H  0.70284928  0.49907792  0.33379043     0.02700
H781        H  0.67311546  0.48029961  0.29285122     0.03200
H782        H  0.71552700  0.48839398  0.27272713     0.06700
H783        H  0.64646394  0.37059265  0.21729986     0.05700
H784        H  0.64983831  0.34089095  0.26708398    -0.00100
H785        H  0.68369309  0.37095213  0.25355654     0.01400
H786        H  0.59821370  0.49586408  0.04772031     0.05100
H787        H  0.55936858  0.47196613  0.04685138     0.07000
H788        H  0.57150529  0.49829897  0.99566695     0.07900
C789        C  0.88112501  0.37779580  0.38174039     0.30700
C790        C  0.88038566  0.37732190  0.61011561     0.30700
C791        C  0.91385641  0.38811489  0.35404395    -0.05500
C792        C  0.87371284  0.34305660  0.35516647    -0.06300
C793        C  0.85510685  0.40266830  0.35628218    -0.06100
C794        C  0.91394165  0.38923946  0.63598568    -0.05500
C795        C  0.87512901  0.34260749  0.63657766    -0.06300
C796        C  0.85259946  0.39818372  0.63827611    -0.06100
C797        C  0.94457821  0.40389269  0.62160719    -0.31500
N798        N  0.96232552  0.41177718  0.32826134     0.15000
C799        C  0.94452648  0.40155988  0.36808278    -0.31500
H800        H  0.95206273  0.40577847  0.40499677     0.16900
C801        C  0.87281818  0.30897380  0.62202106    -0.30500
N802        N  0.87186459  0.28876961  0.32898642     0.13700
C803        C  0.87246470  0.30898109  0.36891970    -0.30500
C804        C  0.81754165  0.39546315  0.63325281    -0.30800
N805        N  0.80071107  0.40647448  0.67254069     0.14200
H806        H  0.80571082  0.37639783  0.61146802     0.16800
C807        C  0.82340818  0.41354514  0.37325203    -0.30800
H808        H  0.81687013  0.41865901  0.41014599     0.16800
H809        H  0.87432518  0.29937016  0.40519959     0.16800
H810        H  0.95188490  0.40959186  0.58474149     0.16900
H811        H  0.87261650  0.29977961  0.58520512     0.16800
C812        C  0.88153053  0.37799830  0.44328589     0.30700
C813        C  0.87968826  0.37903239  0.54783737     0.30700
C814        C  0.88389098  0.41362233  0.46948301    -0.05500
C815        C  0.84986756  0.36170323  0.46903647    -0.06300
C816        C  0.91029083  0.35861203  0.47010284    -0.06100
C817        C  0.88341260  0.41386092  0.52138702    -0.05500
C818        C  0.84702641  0.36651186  0.52036049    -0.06300
C819        C  0.90908916  0.35843917  0.52181052    -0.06100
C820        C  0.89919887  0.44343994  0.53563931    -0.31500
N821        N  0.91063075  0.46065926  0.49610355     0.15000
C822        C  0.90083732  0.44313501  0.45611161    -0.31500
H823        H  0.90890024  0.44906552  0.41969881     0.16900
C824        C  0.81331032  0.37882669  0.52413147    -0.30500
N825        N  0.79508037  0.37215460  0.48437839     0.13700
C826        C  0.81717424  0.36013514  0.45103466    -0.30500
C827        C  0.92611645  0.32890598  0.53574403    -0.30800
N828        N  0.93556937  0.31066565  0.49626115     0.14200
H829        H  0.92731768  0.31877745  0.57195350     0.16800
C830        C  0.92756238  0.32935924  0.45663517    -0.30800
H831        H  0.92876952  0.31940371  0.42041188     0.16800
H832        H  0.81079010  0.35622727  0.41396571     0.16800
H833        H  0.90557380  0.44958762  0.57240252     0.16900
H834        H  0.80519220  0.39970515  0.54667229     0.16800
C835        C  0.51158297  0.87696045  0.61233993     0.30700
C836        C  0.51448955  0.87568055  0.38393341     0.30700
C837        C  0.47967717  0.88944196  0.64111871    -0.05500
C838        C  0.51765676  0.84176488  0.63868015    -0.06300
C839        C  0.53904198  0.89989816  0.63671889    -0.06100
C840        C  0.48121094  0.88922623  0.35896536    -0.05500
C841        C  0.51823295  0.84051352  0.35707187    -0.06300
C842        C  0.54332021  0.89535222  0.35501866    -0.06100
C843        C  0.45053080  0.90310031  0.37526976    -0.31500
N844        N  0.43124773  0.91285157  0.33679808     0.15000
C845        C  0.44839162  0.90361685  0.62921807    -0.31500
H846        H  0.43955670  0.90823638  0.59289572     0.16900
C847        C  0.51854562  0.80593604  0.36989558    -0.30500
N848        N  0.51681080  0.78645758  0.32924419     0.13700
C849        C  0.51688493  0.80817206  0.62379738    -0.30500
C850        C  0.57906222  0.89176252  0.35729279    -0.30800
N851        N  0.59474273  0.90365454  0.31720099     0.14200
H852        H  0.59241298  0.87333700  0.37912306     0.16800
C853        C  0.56985976  0.91042100  0.61729746    -0.30800
H854        H  0.57449913  0.91635980  0.58006495     0.16800
H855        H  0.51415077  0.79994188  0.58736080     0.16800
H856        H  0.44342647  0.90708011  0.41262039     0.16900
H857        H  0.51773884  0.79568903  0.40616272     0.16800
C858        C  0.51148150  0.87684554  0.55082650     0.30700
C859        C  0.51337812  0.87837266  0.44616623     0.30700
C860        C  0.50913294  0.91260812  0.52514032    -0.05500
C861        C  0.54337968  0.86044238  0.52466759    -0.06300
C862        C  0.48260083  0.85814764  0.52365738    -0.06100
C863        C  0.50929787  0.91355171  0.47313727    -0.05500
C864        C  0.54528723  0.86448088  0.47327904    -0.06300
C865        C  0.48400573  0.85826619  0.47191014    -0.06100
C866        C  0.49156952  0.94332599  0.46093230    -0.31500
N867        N  0.48063300  0.95992769  0.50161562     0.15000
C868        C  0.49205591  0.94185695  0.54028465    -0.31500
H869        H  0.48513506  0.94738025  0.57722105     0.16900
C870        C  0.57896726  0.87379013  0.46621107    -0.30500
N871        N  0.59835872  0.86582586  0.50429990     0.13700
C872        C  0.57680963  0.85712952  0.54055501    -0.30500
C873        C  0.46627355  0.82977755  0.45733363    -0.30800
N874        N  0.45607862  0.81172892  0.49659853     0.14200
H875        H  0.46481171  0.82020863  0.42096061     0.16800
C876        C  0.46423709  0.82959578  0.53661746    -0.30800
H877        H  0.46123815  0.81981555  0.57281940     0.16800
H878        H  0.58440416  0.85336857  0.57722023     0.16800
H879        H  0.48422571  0.95037463  0.42475783     0.16900
H880        H  0.58630480  0.89510319  0.44415966     0.16800
Zn881      Zn  0.90028836  0.95829349  0.34492903     1.49700
Zn882      Zn  0.93184292  0.90000657  0.61787755     1.49400
Zn883      Zn  0.97968710  0.97459523  0.65867053     1.49100
Zn884      Zn  0.97214141  0.90504402  0.38427907     1.49500
O885        O  0.94633606  0.93158417  0.33493682    -1.83400
O886        O  0.85929293  0.94505695  0.31154051    -0.74000
O887        O  0.97023191  0.91705212  0.57412657    -0.73900
O888        O  0.95709860  0.02364175  0.66448200    -0.73400
O889        O  0.87678239  0.90026335  0.60637802    -0.74100
O890        O  0.90191015  0.01156845  0.33762825    -0.73700
O891        O  0.99975164  0.96145159  0.59601993    -0.74200
O892        O  0.02423664  0.92289499  0.39344623    -0.73600
O893        O  0.94275880  0.85179965  0.63634746    -0.74400
O894        O  0.02389225  0.97574002  0.69257915    -0.73800
O895        O  0.97553215  0.85508333  0.37029416    -0.71400
O896        O  0.93186018  0.90816527  0.43107644    -0.74200
O897        O  0.88744518  0.93808574  0.40781118    -0.73900
C898        C  0.85277788  0.91863720  0.28757795     0.77800
C899        C  0.97200898  0.94878399  0.58295078     0.78300
C900        C  0.92610425  0.03331854  0.33391343     0.77300
C901        C  0.03942336  0.95090072  0.38132551     0.77700
C902        C  0.96128643  0.83670027  0.33878420     0.78800
C903        C  0.91808305  0.93664775  0.42083885     0.77900
Zn904      Zn  0.90344512  0.98661077  0.47917329     1.49700
Zn905      Zn  0.96833794  0.99818235  0.52220132     1.49400
Zn906      Zn  0.91658525  0.92126138  0.53436666     1.49100
Zn907      Zn  0.98122501  0.93367669  0.46777521     1.49500
O908        O  0.94329314  0.95586808  0.50106007    -1.83400
O909        O  0.90168541  0.03528065  0.50513120    -0.74000
O910        O  0.94251073  0.00129246  0.58328381    -0.73900
O911        O  0.87000226  0.91347973  0.50894043    -0.73400
O912        O  0.95613586  0.04048998  0.48621580    -0.74100
O913        O  0.85442749  0.96307783  0.47781549    -0.73700
O914        O  0.91214447  0.95465668  0.58958966    -0.74200
O915        O  0.98033718  0.88014433  0.47346276    -0.73600
O916        O  0.02176040  0.99525670  0.52625292    -0.74400
O917        O  0.93981663  0.87196379  0.52978706    -0.73800
O918        O  0.02708877  0.94486448  0.49205647    -0.74200
O919        O  0.97137087  0.96372998  0.41156458    -0.74200
O920        O  0.92537991  0.99563216  0.41681039    -0.73900
C921        C  0.92689812  0.05416483  0.49323049     0.77800
C922        C  0.94078268  0.96933665  0.59028666     0.78300
C923        C  0.84725049  0.93206873  0.48967041     0.77300
C924        C  0.96351261  0.86023214  0.50170999     0.77700
C925        C  0.04049518  0.96976297  0.51352708     0.78800
C926        C  0.93920615  0.96666431  0.41154415     0.77900
C927        C  0.01926331  0.51820838  0.61199361     0.30700
C928        C  0.01977239  0.51584020  0.38328418     0.30700
C929        C  0.01906504  0.48257261  0.63753473    -0.05500
C930        C  0.04975137  0.53522747  0.63865004    -0.06300
C931        C  0.98856988  0.53572980  0.63919269    -0.06100
C932        C  0.01920342  0.48053704  0.35652719    -0.05500
C933        C  0.05012754  0.53340615  0.35701611    -0.06300
C934        C  0.98935221  0.53367125  0.35768259    -0.06100
C935        C  0.00105653  0.45150529  0.36923420    -0.31500
N936        N  0.99015406  0.43496147  0.32907133     0.15000
C937        C  0.00194960  0.45361182  0.62306700    -0.31500
H938        H  0.99425310  0.44862343  0.58647490     0.16900
C939        C  0.08336167  0.53796241  0.37174693    -0.30500
N940        N  0.10362007  0.54007277  0.66545902     0.13700
C941        C  0.08374613  0.53820305  0.62563506    -0.30500
C942        C  0.97128882  0.56188515  0.37310590    -0.30800
N943        N  0.96211900  0.58109892  0.33469249     0.14200
H944        H  0.97043387  0.57107966  0.40986806     0.16800
C945        C  0.97104654  0.56537215  0.62731110    -0.30800
H946        H  0.97077584  0.57686862  0.59173427     0.16800
H947        H  0.09356754  0.53485591  0.58981869     0.16800
H948        H  0.99252682  0.44579940  0.40553125     0.16900
H949        H  0.09237291  0.53630839  0.40844748     0.16800
C950        C  0.01935301  0.51830106  0.55004203     0.30700
C951        C  0.02014212  0.51706356  0.44480057     0.30700
C952        C  0.98579344  0.50865784  0.52325603    -0.05500
C953        C  0.02803095  0.55219338  0.52214769    -0.06300
C954        C  0.04470059  0.49316383  0.52400368    -0.06100
C955        C  0.98637099  0.50821332  0.47175363    -0.05500
C956        C  0.02822088  0.55171086  0.47047233    -0.06300
C957        C  0.04537337  0.49266004  0.47209976    -0.06100
C958        C  0.95606779  0.49421495  0.45721457    -0.31500
N959        N  0.93752869  0.48481575  0.49679753     0.15000
C960        C  0.95499474  0.49433952  0.53701412    -0.31500
H961        H  0.94742562  0.48866262  0.57378960     0.16900
C962        C  0.02837935  0.58572533  0.45558435    -0.30500
N963        N  0.02809946  0.60654604  0.49493934     0.13700
C964        C  0.02839836  0.58630919  0.53510656    -0.30500
C965        C  0.07745441  0.48013534  0.45915287    -0.30800
N966        N  0.09590186  0.47374876  0.49946995     0.14200
H967        H  0.08815190  0.47948783  0.42303252     0.16800
C968        C  0.07587829  0.48025125  0.53860783    -0.30800
H969        H  0.08500046  0.47941774  0.57525249     0.16800
H970        H  0.02672389  0.59574077  0.57144322     0.16800
H971        H  0.94949492  0.48865255  0.42030316     0.16900
H972        H  0.02579824  0.59478364  0.41880104     0.16800
C973        C  0.37013142  0.01740562  0.39387385     0.30700
C974        C  0.37106618  0.01841401  0.62232794     0.30700
C975        C  0.37358701  0.98210942  0.36705356    -0.05500
C976        C  0.33819398  0.03270557  0.36816255    -0.06300
C977        C  0.39877704  0.03738666  0.36683832    -0.06100
C978        C  0.37387979  0.98310894  0.64846932    -0.05500
C979        C  0.33893913  0.03378141  0.64930568    -0.06300
C980        C  0.40032218  0.03759115  0.64791201    -0.06100
C981        C  0.39145971  0.95418671  0.63359437    -0.31500
N982        N  0.40317148  0.93628686  0.33883407     0.15000
C983        C  0.39217344  0.95293253  0.37938467    -0.31500
H984        H  0.40039902  0.94668790  0.41547602     0.16900
C985        C  0.30425527  0.03355424  0.63758397    -0.30500
N986        N  0.28316044  0.03184351  0.34659293     0.13700
C987        C  0.30483318  0.03379078  0.38416517    -0.30500
C988        C  0.41666968  0.06703846  0.63347306    -0.30800
N989        N  0.42314243  0.08547493  0.33998074     0.14200
H990        H  0.41727539  0.07718522  0.59714446     0.16800
C991        C  0.41465561  0.06715367  0.37988921    -0.30800
H992        H  0.41499980  0.07736933  0.41589134     0.16800
H993        H  0.29686436  0.03228003  0.42121659     0.16800
H994        H  0.39866518  0.94889668  0.59665208     0.16900
H995        H  0.29388434  0.03039156  0.60190189     0.16800
C996        C  0.37187987  0.01887941  0.56088689     0.30700
C997        C  0.37000244  0.01823042  0.45583348     0.30700
C998        C  0.40578012  0.01023452  0.53256706    -0.05500
C999        C  0.34794499  0.99301845  0.53622025    -0.06300
C1000       C  0.36122725  0.05284371  0.53419864    -0.06100
C1001       C  0.40471309  0.01015725  0.48100611    -0.05500
C1002       C  0.34627514  0.99278570  0.48456004    -0.06300
C1003       C  0.36039576  0.05250918  0.48259637    -0.06100
C1004       C  0.43483041  0.99503475  0.46505221    -0.31500
N1005       N  0.45359665  0.98464088  0.50366699     0.15000
C1006       C  0.43647718  0.99451460  0.54470327    -0.31500
H1007       H  0.44413998  0.98814879  0.58105066     0.16900
C1008       C  0.31443623  0.97908095  0.47473079    -0.30500
N1009       N  0.29749107  0.97181543  0.51666126     0.13700
C1010       C  0.31863379  0.97802478  0.55368582    -0.30500
C1011       C  0.35851977  0.08658026  0.46831541    -0.30800
N1012       N  0.35942812  0.10750449  0.50756764     0.14200
H1013       H  0.35931464  0.09555673  0.43163854     0.16800
C1014       C  0.36015266  0.08721207  0.54766794    -0.30800
H1015       H  0.36274383  0.09691377  0.58396994     0.16800
H1016       H  0.31108097  0.97594066  0.59118197     0.16800
H1017       H  0.44109720  0.98939071  0.42785474     0.16900
H1018       H  0.30286096  0.97780183  0.43977374     0.16800
Zn1019     Zn  0.47086098  0.39216066  0.63515938     1.49700
Zn1020     Zn  0.48798403  0.46237423  0.33168327     1.49400
Zn1021     Zn  0.41374544  0.46575126  0.62052694     1.49100
Zn1022     Zn  0.41395066  0.41226099  0.36992318     1.49500
O1023       O  0.44396845  0.43484570  0.65602163    -1.83400
O1024       O  0.52548501  0.39573580  0.63434921    -0.74000
O1025       O  0.48473962  0.51348492  0.32205510    -0.73900
O1026       O  0.40945565  0.43025535  0.56609372    -0.73400
O1027       O  0.53026327  0.45112442  0.29728648    -0.74100
O1028       O  0.44259102  0.38480398  0.57537955    -0.73700
O1029       O  0.43282968  0.51831721  0.62082239    -0.74200
O1030       O  0.36425944  0.43485130  0.37784851    -0.73600
O1031       O  0.49823211  0.44595966  0.39592782    -0.74400
O1032       O  0.36749113  0.46898912  0.64884688    -0.73800
O1033       O  0.45333338  0.41561516  0.41550096    -0.74200
O1034       O  0.40637224  0.36262775  0.35355188    -0.74200
O1035       O  0.46228599  0.35123417  0.67531017    -0.73900
C1036       C  0.54453996  0.42230135  0.63303059     0.77800
C1037       C  0.46032057  0.53216685  0.63702391     0.78300
C1038       C  0.43881244  0.41651500  0.56655218     0.77300
C1039       C  0.34982979  0.45584133  0.68258109     0.77700
C1040       C  0.46715662  0.44440959  0.40754599     0.78800
C1041       C  0.43213896  0.34060087  0.68199862     0.77900
Zn1042     Zn  0.48216594  0.49185353  0.46742965     1.49700
Zn1043     Zn  0.47743492  0.41616726  0.49689498     1.49400
Zn1044     Zn  0.42637467  0.48741103  0.54105193     1.49100
Zn1045     Zn  0.40528432  0.44099129  0.45522415     1.49500
O1046       O  0.44487506  0.45885571  0.49076488    -1.83400
O1047       O  0.53291870  0.47018813  0.46986970    -0.74000
O1048       O  0.49701220  0.42480595  0.56048754    -0.73900
O1049       O  0.42934156  0.53694381  0.52555688    -0.73400
O1050       O  0.52334554  0.41427419  0.46693182    -0.74100
O1051       O  0.48140880  0.53928414  0.49581417    -0.73700
O1052       O  0.46626672  0.46995748  0.57959145    -0.74200
O1053       O  0.36128170  0.45597502  0.48403687    -0.73600
O1054       O  0.45220508  0.36961656  0.48832638    -0.74400
O1055       O  0.37367732  0.48208036  0.55271638    -0.73800
O1056       O  0.40222337  0.38574834  0.45768544    -0.74200
O1057       O  0.41395571  0.47244874  0.39786125    -0.74200
O1058       O  0.46006771  0.50353089  0.40434548    -0.73900
C1059       C  0.54414680  0.43907633  0.46701752     0.77800
C1060       C  0.46886095  0.43797049  0.57192168     0.78300
C1061       C  0.45436033  0.55439841  0.51082576     0.77300
C1062       C  0.35196196  0.47029757  0.52303268     0.77700
C1063       C  0.42211404  0.36194441  0.47404099     0.78800
C1064       C  0.44615439  0.47483908  0.39856462     0.77900
C1065       C  0.37074289  0.27647912  0.47056995    -0.21700
C1066       C  0.39224660  0.25379884  0.49648699     0.10200
C1067       C  0.42311727  0.26743516  0.51477897     0.10600
C1068       C  0.43234951  0.30161905  0.50422783    -0.16700
C1069       C  0.41062070  0.32474059  0.47938114    -0.27100
C1070       C  0.37844702  0.31179735  0.46422514     0.19000
C1071       C  0.38290150  0.21602325  0.50191698     0.12900
C1072       C  0.44650663  0.24739956  0.54778480    -0.11400
H1073       H  0.45648628  0.31066555  0.51804743     0.13200
C1074       C  0.35121107  0.33489225  0.44328645    -0.22300
H1075       H  0.34708240  0.26664950  0.45622517     0.08800
C1076       C  0.35060555  0.20430122  0.51952039     0.05200
C1077       C  0.34323697  0.16869754  0.52025350    -0.19500
C1078       C  0.36768803  0.14388072  0.50627488    -0.11800
C1079       C  0.40054345  0.15538630  0.49196222     0.13900
C1080       C  0.40711701  0.19079465  0.48813747    -0.22200
C1081       C  0.32371638  0.22823830  0.53989417    -0.05300
H1082       H  0.31836351  0.16016717  0.53280921     0.15400
C1083       C  0.42994070  0.13101834  0.48269013    -0.15500
H1084       H  0.43205573  0.19873741  0.47557120     0.09700
H1085       H  0.32772648  0.32054306  0.43418430     0.07600
H1086       H  0.36048286  0.34727971  0.40981238     0.08800
H1087       H  0.34385165  0.35486648  0.47000193     0.07800
H1088       H  0.47143426  0.24254745  0.52938258     0.02700
H1089       H  0.43561018  0.22269373  0.55990398     0.03200
H1090       H  0.45123013  0.26253875  0.58089888     0.06700
H1091       H  0.31687031  0.21998024  0.57716571     0.05700
H1092       H  0.30047422  0.22742327  0.51717095    -0.00100
H1093       H  0.33238470  0.25506993  0.54232051     0.01400
H1094       H  0.43863064  0.13336179  0.44454306     0.05100
H1095       H  0.42340529  0.10400078  0.49047135     0.07000
H1096       H  0.45153769  0.13763047  0.50663113     0.07900
C1097       C  0.45259953  0.17657884  0.65860901    -0.21700
C1098       C  0.41835253  0.19413240  0.34232439     0.10200
C1099       C  0.39014092  0.17452114  0.35808386     0.10600
C1100       C  0.39235885  0.13884619  0.35538383    -0.16700
C1101       C  0.42532437  0.12199494  0.67236629    -0.27100
C1102       C  0.45368919  0.14068597  0.65592229     0.19000
C1103       C  0.41937505  0.23177219  0.34905538     0.12900
C1104       C  0.35791232  0.19066495  0.37853098    -0.11400
H1105       H  0.37042463  0.12366161  0.36528395     0.13200
C1106       C  0.48490667  0.12262504  0.63611317    -0.22300
H1107       H  0.47433344  0.19128996  0.64593517     0.08800
C1108       C  0.44572953  0.24740980  0.37569972     0.05200
C1109       C  0.44765804  0.28310374  0.37668152    -0.19500
C1110       C  0.42681067  0.30349883  0.68499781    -0.11800
C1111       C  0.40122841  0.28693314  0.65826721     0.13900
C1112       C  0.40088857  0.25105112  0.65722523    -0.22200
C1113       C  0.47275676  0.22757702  0.40288512    -0.05300
H1114       H  0.46844852  0.29498988  0.39598072     0.15400
C1115       C  0.37555830  0.30676691  0.62866868    -0.15500
H1116       H  0.38211239  0.23806235  0.63543685     0.09700
H1117       H  0.50510067  0.14104576  0.62525505     0.07600
H1118       H  0.47791932  0.10749429  0.60384334     0.08800
H1119       H  0.49557977  0.10512962  0.66400398     0.07800
H1120       H  0.34365139  0.20419505  0.34966855     0.02700
H1121       H  0.36428964  0.20911116  0.40727377     0.03200
H1122       H  0.34054282  0.17117237  0.39445884     0.06700
H1123       H  0.47374250  0.23692330  0.44062729     0.05700
H1124       H  0.49813645  0.23179688  0.38558961    -0.00100
H1125       H  0.46797132  0.19968686  0.40455435     0.01400
H1126       H  0.35834014  0.28950031  0.60863242     0.05100
H1127       H  0.38907919  0.32313856  0.60184668     0.07000
H1128       H  0.35936078  0.32303399  0.65265683     0.07900
C1129       C  0.18611173  0.50095107  0.52144432    -0.21700
C1130       C  0.20496509  0.47106476  0.51101212     0.10200
C1131       C  0.18691844  0.44171395  0.49488826     0.10600
C1132       C  0.15092234  0.44306179  0.49174634    -0.16700
C1133       C  0.13271507  0.47340426  0.50109360    -0.27100
C1134       C  0.15098929  0.50324331  0.51298130     0.19000
C1135       C  0.24308296  0.47221439  0.51691914     0.12900
C1136       C  0.20424073  0.40883387  0.47957368    -0.11400
H1137       H  0.13695641  0.42047385  0.48113418     0.13200
C1138       C  0.13500296  0.53846985  0.51348335    -0.22300
H1139       H  0.19923607  0.52358251  0.53377774     0.08800
C1140       C  0.26317020  0.49906662  0.49682080     0.05200
C1141       C  0.29839583  0.49991050  0.50551502    -0.19500
C1142       C  0.31486747  0.47380779  0.53122719    -0.11800
C1143       C  0.29521992  0.44717797  0.55180819     0.13900
C1144       C  0.25949124  0.44746289  0.54596867    -0.22200
C1145       C  0.24912600  0.52649109  0.46387555    -0.05300
H1146       H  0.31369332  0.51972248  0.48845951     0.15400
C1147       C  0.31127871  0.41738920  0.57822900    -0.15500
H1148       H  0.24450078  0.42737617  0.56274481     0.09700
H1149       H  0.14733575  0.55427896  0.48496894     0.07600
H1150       H  0.13973080  0.55096899  0.54870119     0.08800
H1151       H  0.10720011  0.53838917  0.50608365     0.07800
H1152       H  0.19546909  0.38753501  0.50319196     0.02700
H1153       H  0.23236912  0.40988657  0.48122004     0.03200
H1154       H  0.19737941  0.40302877  0.44164029     0.06700
H1155       H  0.26577338  0.52885618  0.43133943     0.05700
H1156       H  0.24879172  0.55148062  0.48291287    -0.00100
H1157       H  0.22315663  0.52076312  0.45092629     0.01400
H1158       H  0.29994899  0.41540127  0.61503299     0.05100
H1159       H  0.33936335  0.41994271  0.58193008     0.07000
H1160       H  0.30614318  0.39330825  0.55842995     0.07900
C1161       C  0.19854829  0.53744132  0.36014936    -0.21700
C1162       C  0.20724183  0.50384134  0.67583124     0.10200
C1163       C  0.18124928  0.48281530  0.65674305     0.10600
C1164       C  0.14765258  0.49575114  0.65303958    -0.16700
C1165       C  0.13901440  0.52927042  0.66716133    -0.27100
C1166       C  0.16478449  0.54982985  0.35573433     0.19000
C1167       C  0.24389388  0.49207367  0.67977097     0.12900
C1168       C  0.18772631  0.44679837  0.63924358    -0.11400
H1169       H  0.12776466  0.47936197  0.63932170     0.13200
C1170       C  0.15659255  0.58548351  0.37321282    -0.22300
H1171       H  0.21752735  0.55386011  0.37613029     0.08800
C1172       C  0.27033748  0.50905763  0.65444539     0.05200
C1173       C  0.30429252  0.49769165  0.65934588    -0.19500
C1174       C  0.31326892  0.46834887  0.68671379    -0.11800
C1175       C  0.28809897  0.45263942  0.38017126     0.13900
C1176       C  0.25394730  0.46493021  0.37769506    -0.22200
C1177       C  0.26292533  0.53821836  0.61998271    -0.05300
H1178       H  0.32397695  0.51152140  0.63977567     0.15400
C1179       C  0.29539318  0.41988345  0.40715913    -0.15500
H1180       H  0.23389900  0.45172018  0.39737912     0.09700
H1181       H  0.17286673  0.60415941  0.35347885     0.07600
H1182       H  0.16200526  0.58729588  0.41239257     0.08800
H1183       H  0.12946084  0.59290022  0.36745467     0.07800
H1184       H  0.17322606  0.42856337  0.66232827     0.02700
H1185       H  0.21505848  0.43922891  0.63950125     0.03200
H1186       H  0.17873799  0.44437641  0.60153592     0.06700
H1187       H  0.28621352  0.54623729  0.59972944     0.05700
H1188       H  0.25316423  0.56095672  0.63977363    -0.00100
H1189       H  0.24373488  0.53010295  0.59320182     0.01400
H1190       H  0.27167716  0.40824190  0.42155425     0.05100
H1191       H  0.31259236  0.42487110  0.43789012     0.07000
H1192       H  0.30743383  0.40082597  0.38245562     0.07900
C1193       C  0.13462042  0.94133746  0.51733141    -0.21700
C1194       C  0.15025967  0.96991715  0.53778733     0.10200
C1195       C  0.12901091  0.99749682  0.55364634     0.10600
C1196       C  0.09352859  0.99658177  0.54561228    -0.16700
C1197       C  0.07802943  0.96827258  0.52402050    -0.27100
C1198       C  0.09900047  0.93922824  0.51259496     0.19000
C1199       C  0.18866945  0.97094341  0.53767269     0.12900
C1200       C  0.14240849  0.02838107  0.57933733    -0.11400
H1201       H  0.07791396  0.01844380  0.55627280     0.13200
C1202       C  0.08474131  0.90529271  0.49655648    -0.22300
H1203       H  0.15055694  0.92024027  0.50477907     0.08800
C1204       C  0.20945213  0.94307101  0.55374409     0.05200
C1205       C  0.24499501  0.94335166  0.54456162    -0.19500
C1206       C  0.26079164  0.97169554  0.52294838    -0.11800
C1207       C  0.24060881  0.00118769  0.51298543     0.13900
C1208       C  0.20489984  0.99943874  0.51691901    -0.22200
C1209       C  0.19540611  0.91310009  0.58185518    -0.05300
H1210       H  0.26070487  0.92168545  0.55549102     0.15400
C1211       C  0.25565769  0.03568150  0.50164786    -0.15500
H1212       H  0.18966560  0.02112290  0.50486912     0.09700
H1213       H  0.10502327  0.88529300  0.49292662     0.07600
H1214       H  0.07251711  0.90773902  0.46082333     0.08800
H1215       H  0.06593951  0.89589093  0.52376723     0.07800
H1216       H  0.13854930  0.05158535  0.55663406     0.02700
H1217       H  0.16985328  0.02595950  0.58812361     0.03200
H1218       H  0.12796312  0.03176243  0.61374111     0.06700
H1219       H  0.20930540  0.91053965  0.61651451     0.05700
H1220       H  0.19911989  0.88920810  0.56070959    -0.00100
H1221       H  0.16790089  0.91604627  0.59102507     0.01400
H1222       H  0.24723956  0.04430485  0.46536925     0.05100
H1223       H  0.28391534  0.03590600  0.50344482     0.07000
H1224       H  0.24623889  0.05454301  0.52876765     0.07900
C1225       C  0.95992168  0.76356515  0.47774859    -0.21700
C1226       C  0.99048611  0.75149765  0.49878594     0.10200
C1227       C  0.01162253  0.77581237  0.52201692     0.10600
C1228       C  0.00232158  0.81092391  0.52187959    -0.16700
C1229       C  0.97162462  0.82267601  0.50128555    -0.27100
C1230       C  0.94989902  0.79841460  0.47964867     0.19000
C1231       C  0.99937198  0.71365151  0.49622744     0.12900
C1232       C  0.04364530  0.76581540  0.54877713    -0.11400
H1233       H  0.01894074  0.82927421  0.53901710     0.13200
C1234       C  0.91597499  0.80838500  0.45795831    -0.22300
H1235       H  0.94372636  0.74567265  0.45903273     0.08800
C1236       C  0.97824848  0.68829417  0.51765110     0.05200
C1237       C  0.98861796  0.65356846  0.51709888    -0.19500
C1238       C  0.01923069  0.64279157  0.49461777    -0.11800
C1239       C  0.03994030  0.66779790  0.47180397     0.13900
C1240       C  0.02985164  0.70271700  0.47300969    -0.22200
C1241       C  0.94528733  0.69773458  0.54300028    -0.05300
H1242       H  0.97251777  0.63443638  0.53406965     0.15400
C1243       C  0.07329877  0.65866735  0.44718989    -0.15500
H1244       H  0.04626056  0.72170905  0.45628398     0.09700
H1245       H  0.89509667  0.79499707  0.47764984     0.07600
H1246       H  0.91537362  0.80060774  0.41956052     0.08800
H1247       H  0.91064420  0.83629415  0.45951714     0.07800
H1248       H  0.06607999  0.77847661  0.53175223     0.02700
H1249       H  0.04854439  0.73785257  0.54941958     0.03200
H1250       H  0.04131756  0.77437766  0.58691467     0.06700
H1251       H  0.93403911  0.67551509  0.56245379     0.05700
H1252       H  0.92613836  0.70700589  0.51662477    -0.00100
H1253       H  0.95019410  0.71811289  0.56968257     0.01400
H1254       H  0.07189721  0.66561931  0.40831484     0.05100
H1255       H  0.07981613  0.63104538  0.45005288     0.07000
H1256       H  0.09437466  0.67318901  0.46398207     0.07900
C1257       C  0.13722861  0.94982078  0.69200898    -0.21700
C1258       C  0.14546068  0.98171957  0.38322762     0.10200
C1259       C  0.11969414  0.00109406  0.40761145     0.10600
C1260       C  0.08578930  0.98906090  0.40923447    -0.16700
C1261       C  0.07656376  0.95740611  0.38919512    -0.27100
C1262       C  0.10328010  0.93762780  0.69569448     0.19000
C1263       C  0.18144588  0.99466481  0.37499614     0.12900
C1264       C  0.12662040  0.03494080  0.43154475    -0.11400
H1265       H  0.06602126  0.00506886  0.42553685     0.13200
C1266       C  0.09427834  0.90433210  0.67184308    -0.22300
H1267       H  0.15611555  0.93489905  0.67220843     0.08800
C1268       C  0.21086084  0.97441653  0.38527840     0.05200
C1269       C  0.24358497  0.98645191  0.37234962    -0.19500
C1270       C  0.24854308  0.01910434  0.35193028    -0.11800
C1271       C  0.22110377  0.03989849  0.67206335     0.13900
C1272       C  0.18818895  0.02696756  0.68250674    -0.22200
C1273       C  0.20906790  0.94058632  0.41164148    -0.05300
H1274       H  0.26572823  0.97042753  0.37936650     0.15400
C1275       C  0.22392840  0.07517896  0.65039518    -0.15500
H1276       H  0.16615731  0.04298260  0.67476837     0.09700
H1277       H  0.11699056  0.89201878  0.65449152     0.07600
H1278       H  0.07482164  0.90898575  0.64351044     0.08800
H1279       H  0.08385413  0.88627375  0.69922774     0.07800
H1280       H  0.11377985  0.05585975  0.41110112     0.02700
H1281       H  0.15423749  0.04058497  0.43433370     0.03200
H1282       H  0.11614155  0.03486409  0.46881825     0.06700
H1283       H  0.22667323  0.94085525  0.44279353     0.05700
H1284       H  0.21712485  0.91959689  0.38695737    -0.00100
H1285       H  0.18326873  0.93501279  0.42637817     0.01400
H1286       H  0.21055026  0.07590799  0.61518524     0.05100
H1287       H  0.25084482  0.08290048  0.64405229     0.07000
H1288       H  0.21174411  0.09417162  0.67505641     0.07900
C1289       C  0.93866265  0.67016331  0.37479702    -0.21700
C1290       C  0.96044012  0.69059229  0.68072308     0.10200
C1291       C  0.98604550  0.67349451  0.65343535     0.10600
C1292       C  0.98472376  0.63801349  0.64925605    -0.16700
C1293       C  0.96034795  0.61774110  0.33824612    -0.27100
C1294       C  0.93630794  0.63459473  0.36852594     0.19000
C1295       C  0.95856577  0.72843708  0.68127073     0.12900
C1296       C  0.01501585  0.69218938  0.62861047    -0.11400
H1297       H  0.00516274  0.62486712  0.63047862     0.13200
C1298       C  0.90769492  0.61593375  0.39375354    -0.22300
H1299       H  0.91988381  0.68338601  0.39722890     0.08800
C1300       C  0.93100499  0.74678644  0.66036314     0.05200
C1301       C  0.93283389  0.78242652  0.65698102    -0.19500
C1302       C  0.96308772  0.79902961  0.34261154    -0.11800
C1303       C  0.99090786  0.78120075  0.36372068     0.13900
C1304       C  0.98949189  0.74545985  0.36771559    -0.22200
C1305       C  0.89952623  0.73008915  0.64016133    -0.05300
H1306       H  0.91153919  0.79633113  0.64108494     0.15400
C1307       C  0.02255268  0.79921286  0.38076348    -0.15500
H1308       H  0.01050763  0.73168369  0.38419545     0.09700
H1309       H  0.88276992  0.62752981  0.38325955     0.07600
H1310       H  0.91066030  0.61822819  0.43346643     0.08800
H1311       H  0.90699376  0.58837270  0.38430284     0.07800
H1312       H  0.03290086  0.70239850  0.65571683     0.02700
H1313       H  0.00488574  0.71361831  0.60647460     0.03200
H1314       H  0.03013792  0.67502177  0.60441819     0.06700
H1315       H  0.89554050  0.73889038  0.60241543     0.05700
H1316       H  0.87678965  0.73777830  0.66207324    -0.00100
H1317       H  0.90104803  0.70180315  0.63932214     0.01400
H1318       H  0.04245566  0.78075907  0.39320830     0.05100
H1319       H  0.01618108  0.81616052  0.41169062     0.07000
H1320       H  0.03370488  0.81454186  0.35072143     0.07900
C1321       C  0.47908700  0.71922577  0.51225969    -0.21700
C1322       C  0.44855113  0.70302055  0.50034667     0.10200
C1323       C  0.42005165  0.72330662  0.48579153     0.10600
C1324       C  0.42272111  0.75931063  0.48601551    -0.16700
C1325       C  0.45381081  0.77504597  0.49662801    -0.27100
C1326       C  0.48296148  0.75435169  0.50610362     0.19000
C1327       C  0.44872289  0.66488464  0.50066766     0.12900
C1328       C  0.38755705  0.70743914  0.46781747    -0.11400
H1329       H  0.40090974  0.77525022  0.47658850     0.13200
C1330       C  0.51908735  0.76745239  0.50506103    -0.22300
H1331       H  0.50111598  0.70390708  0.52282058     0.08800
C1332       C  0.47479743  0.64574328  0.47682610     0.05200
C1333       C  0.47662374  0.61025962  0.48310638    -0.19500
C1334       C  0.45169614  0.59248338  0.50960318    -0.11800
C1335       C  0.42451718  0.61149659  0.53178811     0.13900
C1336       C  0.42460171  0.64745363  0.52903623    -0.22200
C1337       C  0.50067186  0.66144186  0.44301009    -0.05300
H1338       H  0.49707414  0.59623161  0.46496442     0.15400
C1339       C  0.39474833  0.59473743  0.55742704    -0.15500
H1340       H  0.40564919  0.66204017  0.54925589     0.09700
H1341       H  0.53303443  0.75563359  0.47410030     0.07600
H1342       H  0.53266495  0.75961422  0.53840137     0.08800
H1343       H  0.52052225  0.79549262  0.50054554     0.07800
H1344       H  0.37427693  0.69345884  0.49726338     0.02700
H1345       H  0.39356123  0.68956143  0.43778307     0.03200
H1346       H  0.36942283  0.72718491  0.45402142     0.06700
H1347       H  0.50163822  0.64617717  0.40943513     0.05700
H1348       H  0.52637267  0.66063960  0.45976899    -0.00100
H1349       H  0.49419741  0.68809400  0.43232920     0.01400
H1350       H  0.37672890  0.61390692  0.57328387     0.05100
H1351       H  0.40375895  0.57812545  0.58721193     0.07000
H1352       H  0.38008217  0.57921899  0.53138788     0.07900
C1353       C  0.76795887  0.87538001  0.50384616    -0.21700
C1354       C  0.74243537  0.89553784  0.48225793     0.10200
C1355       C  0.75276678  0.92532609  0.45658366     0.10600
C1356       C  0.78688613  0.93655068  0.45910180    -0.16700
C1357       C  0.81220244  0.91712124  0.48261263    -0.27100
C1358       C  0.80275508  0.88418643  0.50088770     0.19000
C1359       C  0.70537865  0.88640030  0.48993687     0.12900
C1360       C  0.72899157  0.94515295  0.42433203    -0.11400
H1361       H  0.79375705  0.96056098  0.44191816     0.13200
C1362       C  0.82856026  0.85733328  0.51630306    -0.22300
H1363       H  0.76066715  0.85234775  0.52320062     0.08800
C1364       C  0.69218761  0.85291579  0.48299274     0.05200
C1365       C  0.65746157  0.84643074  0.49346088    -0.19500
C1366       C  0.63453435  0.87282370  0.50608182    -0.11800
C1367       C  0.64718554  0.90660989  0.50961263     0.13900
C1368       C  0.68252915  0.91231220  0.50536405    -0.22200
C1369       C  0.71282168  0.82382497  0.46141231    -0.05300
H1370       H  0.64743618  0.82096328  0.48775986     0.15400
C1371       C  0.62427091  0.93769591  0.51391933    -0.15500
H1372       H  0.69202383  0.93797834  0.51112041     0.09700
H1373       H  0.84711615  0.85251869  0.48640554     0.07600
H1374       H  0.81620455  0.83251494  0.52504487     0.08800
H1375       H  0.84223379  0.86528420  0.54901789     0.07800
H1376       H  0.72479605  0.97135530  0.43884408     0.02700
H1377       H  0.70397043  0.93253193  0.41946089     0.03200
H1378       H  0.74112948  0.94698495  0.38811589     0.06700
H1379       H  0.69949834  0.81398344  0.42908549     0.05700
H1380       H  0.71523996  0.80276030  0.48826579    -0.00100
H1381       H  0.73868017  0.83136173  0.44919590     0.01400
H1382       H  0.62909557  0.95108464  0.54838604     0.05100
H1383       H  0.59680479  0.93164018  0.51163657     0.07000
H1384       H  0.62992559  0.95557021  0.48362324     0.07900
C1385       C  0.50233483  0.61992015  0.61662313    -0.21700
C1386       C  0.48416693  0.64124635  0.31143848     0.10200
C1387       C  0.45398949  0.62709384  0.33270283     0.10600
C1388       C  0.44612088  0.59215486  0.32577802    -0.16700
C1389       C  0.46631161  0.57020162  0.63516178    -0.27100
C1390       C  0.49592161  0.58446908  0.61294691     0.19000
C1391       C  0.49386237  0.67871730  0.31645751     0.12900
C1392       C  0.43016535  0.64721264  0.36531758    -0.11400
H1393       H  0.42340623  0.58171492  0.34294310     0.13200
C1394       C  0.52195451  0.56311385  0.58565185    -0.22300
H1395       H  0.52408576  0.63048077  0.59725577     0.08800
C1396       C  0.52662906  0.68990060  0.33236324     0.05200
C1397       C  0.53339541  0.72534769  0.33652031    -0.19500
C1398       C  0.50764550  0.75075342  0.66042409    -0.11800
C1399       C  0.47428762  0.73997325  0.64821956     0.13900
C1400       C  0.46743385  0.70478380  0.64228625    -0.22200
C1401       C  0.55508935  0.66566018  0.34678891    -0.05300
H1402       H  0.55844505  0.73363669  0.34794970     0.15400
C1403       C  0.44496464  0.76490549  0.64249739    -0.15500
H1404       H  0.44198775  0.69723596  0.63150654     0.09700
H1405       H  0.54679575  0.56379942  0.60477047     0.07600
H1406       H  0.52576769  0.57390296  0.54886719     0.08800
H1407       H  0.51440790  0.53598650  0.58176720     0.07800
H1408       H  0.40499823  0.65056423  0.34752766     0.02700
H1409       H  0.44012381  0.67263866  0.37525263     0.03200
H1410       H  0.42625065  0.63294156  0.39967787     0.06700
H1411       H  0.56419402  0.67242790  0.38338642     0.05700
H1412       H  0.57681262  0.66809851  0.32088503    -0.00100
H1413       H  0.54726761  0.63853651  0.34853145     0.01400
H1414       H  0.43532422  0.76382156  0.60494051     0.05100
H1415       H  0.45209175  0.79163879  0.65078587     0.07000
H1416       H  0.42392434  0.75781146  0.66777940     0.07900
C1417       C  0.68686441  0.87950025  0.62396927    -0.21700
C1418       C  0.70410196  0.90890973  0.29708567     0.10200
C1419       C  0.68372439  0.93873632  0.30680518     0.10600
C1420       C  0.64786012  0.93599534  0.31068836    -0.16700
C1421       C  0.63136092  0.90439981  0.30864739    -0.27100
C1422       C  0.65149122  0.87633495  0.63312141     0.19000
C1423       C  0.74273781  0.90935310  0.29136188     0.12900
C1424       C  0.69805151  0.97394815  0.31545159    -0.11400
H1425       H  0.63249346  0.95876518  0.31763607     0.13200
C1426       C  0.63730922  0.84064300  0.63581579    -0.22300
H1427       H  0.70162471  0.85663251  0.61530798     0.08800
C1428       C  0.76477589  0.88499591  0.31415744     0.05200
C1429       C  0.80037774  0.88545204  0.30473333    -0.19500
C1430       C  0.81567212  0.91253782  0.27929318    -0.11800
C1431       C  0.79378856  0.94074464  0.59224203     0.13900
C1432       C  0.75801020  0.93673220  0.59380517    -0.22200
C1433       C  0.75259381  0.86036785  0.35257341    -0.05300
H1434       H  0.81674580  0.86690731  0.32278861     0.15400
C1435       C  0.80713400  0.97434648  0.57297378    -0.15500
H1436       H  0.74204874  0.95518080  0.57495088     0.09700
H1437       H  0.65139024  0.82574344  0.66366359     0.07600
H1438       H  0.64082336  0.82773710  0.60041126     0.08800
H1439       H  0.60988925  0.84005174  0.64600356     0.07800
H1440       H  0.68984064  0.99150444  0.28601940     0.02700
H1441       H  0.72619583  0.97461964  0.31801555     0.03200
H1442       H  0.68790891  0.98402706  0.35028853     0.06700
H1443       H  0.76878459  0.86306067  0.38508685     0.05700
H1444       H  0.75493291  0.83366439  0.33917806    -0.00100
H1445       H  0.72596052  0.86541648  0.36476505     0.01400
H1446       H  0.79700192  0.97937379  0.53634734     0.05100
H1447       H  0.83543863  0.97518953  0.57088701     0.07000
H1448       H  0.79820360  0.99542824  0.59694341     0.07900
C1449       C  0.89934789  0.14757178  0.50843989    -0.21700
C1450       C  0.92551407  0.16436518  0.48260615     0.10200
C1451       C  0.95002890  0.14449841  0.45692321     0.10600
C1452       C  0.94895076  0.10876934  0.46033374    -0.16700
C1453       C  0.92352221  0.09190349  0.48747960    -0.27100
C1454       C  0.89740032  0.11165325  0.50998203     0.19000
C1455       C  0.92774895  0.20233599  0.48587754     0.12900
C1456       C  0.97783414  0.15973640  0.42561065    -0.11400
H1457       H  0.96844576  0.09392584  0.44139997     0.13200
C1458       C  0.86790939  0.09535109  0.53653587    -0.22300
H1459       H  0.88068915  0.16273515  0.52841286     0.08800
C1460       C  0.89953550  0.22400673  0.47531278     0.05200
C1461       C  0.90245036  0.25920912  0.48282628    -0.19500
C1462       C  0.93365164  0.27398192  0.49556308    -0.11800
C1463       C  0.96182926  0.25273052  0.50627649     0.13900
C1464       C  0.95821984  0.21704223  0.50283549    -0.22200
C1465       C  0.86639174  0.21139331  0.45456182    -0.05300
H1466       H  0.88036919  0.27565471  0.47733477     0.15400
C1467       C  0.99575065  0.26700977  0.52106674    -0.15500
H1468       H  0.97960826  0.20056860  0.51248332     0.09700
H1469       H  0.85360375  0.07863585  0.51158959     0.07600
H1470       H  0.84942196  0.11476481  0.55021296     0.08800
H1471       H  0.87746023  0.08015326  0.56769042     0.07800
H1472       H  0.00322950  0.15342756  0.44115635     0.02700
H1473       H  0.97566338  0.18789489  0.42165652     0.03200
H1474       H  0.97659893  0.14859800  0.38882770     0.06700
H1475       H  0.86002903  0.22653587  0.42180765     0.05700
H1476       H  0.84542501  0.21485404  0.48151961    -0.00100
H1477       H  0.86757100  0.18420831  0.44330399     0.01400
H1478       H  0.00239596  0.25724037  0.55754793     0.05100
H1479       H  0.99555127  0.29542328  0.52223700     0.07000
H1480       H  0.01586939  0.25869669  0.49490386     0.07900
C1481       C  0.71507421  0.42594948  0.46659252    -0.21700
C1482       C  0.68938847  0.40092946  0.46959577     0.10200
C1483       C  0.69988323  0.36593158  0.47374268     0.10600
C1484       C  0.73495050  0.35757083  0.47542411    -0.16700
C1485       C  0.76008905  0.38278117  0.47626260    -0.27100
C1486       C  0.74990907  0.41765799  0.47257583     0.19000
C1487       C  0.65236382  0.41225899  0.46796824     0.12900
C1488       C  0.67550525  0.33635569  0.47890749    -0.11400
H1489       H  0.74284080  0.33096400  0.47885373     0.13200
C1490       C  0.77453381  0.44701003  0.47592614    -0.22300
H1491       H  0.70776535  0.45260180  0.46171409     0.08800
C1492       C  0.63882415  0.43953755  0.49660246     0.05200
C1493       C  0.60431254  0.44972287  0.49180835    -0.19500
C1494       C  0.58154390  0.43089987  0.46382597    -0.11800
C1495       C  0.59460520  0.40250162  0.43723021     0.13900
C1496       C  0.62999667  0.39562383  0.43655122    -0.22200
C1497       C  0.65878205  0.45691459  0.53550467    -0.05300
H1498       H  0.59442993  0.47067569  0.51366631     0.15400
C1499       C  0.57157559  0.37844310  0.41055577    -0.15500
H1500       H  0.64000280  0.37563983  0.41313002     0.09700
H1501       H  0.76679850  0.46381220  0.50651343     0.07600
H1502       H  0.77378317  0.46226044  0.44199135     0.08800
H1503       H  0.80128556  0.43878210  0.48214082     0.07800
H1504       H  0.67725751  0.32003476  0.44618924     0.02700
H1505       H  0.64857784  0.34420246  0.48479955     0.03200
H1506       H  0.68271875  0.32058275  0.51077549     0.06700
H1507       H  0.64306475  0.45712239  0.56905533     0.05700
H1508       H  0.66413564  0.48379087  0.52479405    -0.00100
H1509       H  0.68301274  0.44349033  0.54438031     0.01400
H1510       H  0.58629853  0.36036207  0.38722549     0.05100
H1511       H  0.55367848  0.39310788  0.38759381     0.07000
H1512       H  0.55660885  0.36298589  0.43687357     0.07900
C1513       C  0.91906380  0.20431025  0.33987206    -0.21700
C1514       C  0.89513369  0.18057870  0.65717651     0.10200
C1515       C  0.86338450  0.19414562  0.64078279     0.10600
C1516       C  0.85721946  0.22972034  0.64263820    -0.16700
C1517       C  0.87980884  0.25252691  0.32788519    -0.27100
C1518       C  0.91273280  0.23982578  0.33975531     0.19000
C1519       C  0.90316210  0.14294369  0.65862078     0.12900
C1520       C  0.83550846  0.17225614  0.62045093    -0.11400
H1521       H  0.83291913  0.24006636  0.63048617     0.13200
C1522       C  0.94230170  0.26300749  0.35031919    -0.22300
H1523       H  0.94414035  0.19506172  0.35001069     0.08800
C1524       C  0.93204275  0.12829788  0.63468670     0.05200
C1525       C  0.93910977  0.09306442  0.63985268    -0.19500
C1526       C  0.91781570  0.07101166  0.33320151    -0.11800
C1527       C  0.88862591  0.08538214  0.35693095     0.13900
C1528       C  0.88239156  0.12100522  0.35445644    -0.22200
C1529       C  0.95586579  0.14874398  0.60283648    -0.05300
H1530       H  0.96111476  0.08220718  0.62102565     0.15400
C1531       C  0.86396024  0.06369963  0.38567730    -0.15500
H1532       H  0.86070832  0.13188744  0.37395657     0.09700
H1533       H  0.96389713  0.25689170  0.32531283     0.07600
H1534       H  0.95086279  0.25885206  0.38803465     0.08800
H1535       H  0.93600157  0.29046523  0.34506316     0.07800
H1536       H  0.81190290  0.17531008  0.64274140     0.02700
H1537       H  0.84231239  0.14475504  0.61962806     0.03200
H1538       H  0.82996573  0.18054372  0.58287930     0.06700
H1539       H  0.95901536  0.13582981  0.56742432     0.05700
H1540       H  0.98136701  0.15017919  0.62002766    -0.00100
H1541       H  0.94638963  0.17507016  0.59555783     0.01400
H1542       H  0.87790061  0.04902625  0.41376799     0.05100
H1543       H  0.85055091  0.04581477  0.36136936     0.07000
H1544       H  0.84404887  0.07951851  0.40418279     0.07900
C1545       C  0.70762941  0.38456159  0.33832966    -0.21700
C1546       C  0.69215639  0.41283349  0.66261190     0.10200
C1547       C  0.71316555  0.44238792  0.65772651     0.10600
C1548       C  0.74836213  0.43966715  0.66663341    -0.16700
C1549       C  0.76404550  0.40815907  0.67618502    -0.27100
C1550       C  0.74328685  0.38159932  0.34313377     0.19000
C1551       C  0.65420697  0.41369335  0.65426529     0.12900
C1552       C  0.70064633  0.47714725  0.64112949    -0.11400
H1553       H  0.76439647  0.46202417  0.66222491     0.13200
C1554       C  0.75825023  0.34599547  0.34675183    -0.22300
H1555       H  0.69212319  0.36179126  0.34213840     0.08800
C1556       C  0.63718398  0.39069949  0.62289181     0.05200
C1557       C  0.60141041  0.39364733  0.61656401    -0.19500
C1558       C  0.58250454  0.42025950  0.63815887    -0.11800
C1559       C  0.59932382  0.44491872  0.33283213     0.13900
C1560       C  0.63446923  0.44117437  0.34067494    -0.22200
C1561       C  0.65640770  0.36399870  0.59410067    -0.05300
H1562       H  0.58828138  0.37566542  0.59363026     0.15400
C1563       C  0.58137869  0.47517789  0.35605305    -0.15500
H1564       H  0.64703659  0.45843811  0.36530204     0.09700
H1565       H  0.74956412  0.33057310  0.31561498     0.07600
H1566       H  0.74933971  0.33352019  0.38060535     0.08800
H1567       H  0.78650329  0.34550485  0.34563932     0.07800
H1568       H  0.70490770  0.49621504  0.67008102     0.02700
H1569       H  0.67341956  0.47820018  0.63144818     0.03200
H1570       H  0.71534800  0.48502811  0.60844203     0.06700
H1571       H  0.63931916  0.35118104  0.56817288     0.05700
H1572       H  0.66675403  0.34359699  0.61779655    -0.00100
H1573       H  0.67755258  0.37619661  0.57347576     0.01400
H1574       H  0.59860557  0.48981539  0.37991984     0.05100
H1575       H  0.55953804  0.46641544  0.37831023     0.07000
H1576       H  0.57210433  0.49313384  0.32777056     0.07900
C1577       C  0.88229742  0.37714424  0.71522297     0.30700
C1578       C  0.87907773  0.37728193  0.94370912     0.30700
C1579       C  0.91477120  0.38838857  0.68747648    -0.05500
C1580       C  0.87576633  0.34243717  0.68825144    -0.06300
C1581       C  0.85575269  0.40145208  0.68990966    -0.06100
C1582       C  0.91303332  0.38828742  0.96933056    -0.05500
C1583       C  0.87259382  0.34282935  0.97055009    -0.06300
C1584       C  0.85208788  0.39958575  0.97167508    -0.06100
C1585       C  0.94365623  0.40296896  0.95477869    -0.31500
N1586       N  0.96298226  0.41250517  0.66147589     0.15000
C1587       C  0.94542185  0.40198382  0.70137825    -0.31500
H1588       H  0.95314934  0.40598106  0.73826832     0.16900
C1589       C  0.87012507  0.30896008  0.95659348    -0.30500
N1590       N  0.87431685  0.28844691  0.66151749     0.13700
C1591       C  0.87465288  0.30837379  0.70169119    -0.30500
C1592       C  0.81688169  0.39927539  0.96651895    -0.30800
N1593       N  0.80060120  0.41139549  0.00575107     0.14200
H1594       H  0.80409549  0.38032666  0.94588745     0.16800
C1595       C  0.82393744  0.41126440  0.70724863    -0.30800
H1596       H  0.81769009  0.41632529  0.74414101     0.16800
H1597       H  0.87616770  0.29855964  0.73789487     0.16800
H1598       H  0.95083605  0.40876418  0.91789686     0.16900
H1599       H  0.87054114  0.29946094  0.91992572     0.16800
C1600       C  0.88215052  0.37709805  0.77695446     0.30700
C1601       C  0.87903766  0.37857477  0.88147136     0.30700
C1602       C  0.88373315  0.41284601  0.80290435    -0.05500
C1603       C  0.85039654  0.36047256  0.80227788    -0.06300
C1604       C  0.91089026  0.35809433  0.80468865    -0.06100
C1605       C  0.88263665  0.41336744  0.85478535    -0.05500
C1606       C  0.84710102  0.36497370  0.85355462    -0.06300
C1607       C  0.90899097  0.35817199  0.85647736    -0.06100
C1608       C  0.89869677  0.44291384  0.86897278    -0.31500
N1609       N  0.91055748  0.45991617  0.82947565     0.15000
C1610       C  0.90096035  0.44223686  0.78956263    -0.31500
H1611       H  0.90929899  0.44800965  0.75323953     0.16900
C1612       C  0.81285885  0.37526518  0.85748372    -0.30500
N1613       N  0.79499212  0.36767240  0.81775394     0.13700
C1614       C  0.81781642  0.35741345  0.78407255    -0.30500
C1615       C  0.92525105  0.32839124  0.87123525    -0.30800
N1616       N  0.93517638  0.30987129  0.83227746     0.14200
H1617       H  0.92551075  0.31835757  0.90755115     0.16800
C1618       C  0.92794560  0.32844359  0.79220461    -0.30800
H1619       H  0.92966244  0.31828801  0.75615145     0.16800
H1620       H  0.81174645  0.35363061  0.74688713     0.16800
H1621       H  0.90489736  0.44917599  0.90576809     0.16900
H1622       H  0.80417094  0.39652845  0.87861477     0.16800
C1623       C  0.51225590  0.87732784  0.94581902     0.30700
C1624       C  0.51483537  0.87612725  0.71716757     0.30700
C1625       C  0.47997805  0.88907915  0.97452943    -0.05500
C1626       C  0.51926751  0.84230700  0.97212599    -0.06300
C1627       C  0.53917440  0.90089691  0.97038561    -0.06100
C1628       C  0.48144924  0.88953078  0.69237845    -0.05500
C1629       C  0.51867939  0.84091350  0.69029020    -0.06300
C1630       C  0.54345064  0.89598485  0.68793814    -0.06100
C1631       C  0.45089046  0.90355211  0.70881612    -0.31500
N1632       N  0.43155488  0.91329316  0.67040218     0.15000
C1633       C  0.44872141  0.90337032  0.96255459    -0.31500
H1634       H  0.44007701  0.90825224  0.92620680     0.16900
C1635       C  0.51902034  0.80630745  0.70309524    -0.30500
N1636       N  0.51646253  0.78682153  0.66255069     0.13700
C1637       C  0.52029244  0.80874998  0.95711763    -0.30500
C1638       C  0.57927545  0.89325511  0.69019704    -0.30800
N1639       N  0.59465901  0.90514534  0.64983689     0.14200
H1640       H  0.59313201  0.87549757  0.71247241     0.16800
C1641       C  0.57014033  0.91132959  0.95130296    -0.30800
H1642       H  0.57496149  0.91720574  0.91409428     0.16800
H1643       H  0.51833197  0.80048060  0.92057447     0.16800
H1644       H  0.44391175  0.90765288  0.74618271     0.16900
H1645       H  0.51875307  0.79603175  0.73937046     0.16800
C1646       C  0.51203592  0.87711604  0.88423595     0.30700
C1647       C  0.51363742  0.87881980  0.77946344     0.30700
C1648       C  0.50893403  0.91281007  0.85856832    -0.05500
C1649       C  0.54409484  0.86133674  0.85782475    -0.06300
C1650       C  0.48355417  0.85770598  0.85716811    -0.06100
C1651       C  0.50903555  0.91383224  0.80663352    -0.05500
C1652       C  0.54580121  0.86554001  0.80640112    -0.06300
C1653       C  0.48469374  0.85811199  0.80532228    -0.06100
C1654       C  0.49181316  0.94386083  0.79447076    -0.31500
N1655       N  0.48107401  0.96049709  0.83524474     0.15000
C1656       C  0.49222380  0.94220012  0.87389189    -0.31500
H1657       H  0.48544376  0.94776893  0.91087607     0.16900
C1658       C  0.57914096  0.87581871  0.79928323    -0.30500
N1659       N  0.59870924  0.86822251  0.83727714     0.13700
C1660       C  0.57755584  0.85874261  0.87351828    -0.30500
C1661       C  0.46793819  0.82906825  0.79063214    -0.30800
N1662       N  0.45908225  0.81019708  0.82970448     0.14200
H1663       H  0.46602029  0.81996011  0.75409803     0.16800
C1664       C  0.46686205  0.82804816  0.86986920    -0.30800
H1665       H  0.46465670  0.81783672  0.90589312     0.16800
H1666       H  0.58535992  0.85494371  0.91005575     0.16800
H1667       H  0.48468325  0.95111274  0.75828193     0.16900
H1668       H  0.58586980  0.89740271  0.77731710     0.16800
Zn1669     Zn  0.90015272  0.95916402  0.67916176     1.49700
Zn1670     Zn  0.93305082  0.89841018  0.95295481     1.49400
Zn1671     Zn  0.98215977  0.97325692  0.99125497     1.49100
Zn1672     Zn  0.97263534  0.90580913  0.71542812     1.49500
O1673       O  0.94624539  0.93291925  0.66735004    -1.83400
O1674       O  0.85893792  0.94639496  0.64571730    -0.74000
O1675       O  0.97095568  0.91440913  0.90753979    -0.73900
O1676       O  0.96011156  0.02322946  0.99709571    -0.73400
O1677       O  0.87765529  0.89845641  0.94274072    -0.74100
O1678       O  0.90169192  0.01222473  0.67260486    -0.73700
O1679       O  0.00136866  0.95856326  0.92834994    -0.74200
O1680       O  0.02521327  0.92324934  0.72344800    -0.73600
O1681       O  0.94454434  0.85046330  0.97195168    -0.74400
O1682       O  0.02646790  0.97334370  0.02554214    -0.73800
O1683       O  0.97535850  0.85612570  0.70081319    -0.71400
O1684       O  0.93250004  0.90814870  0.76268520    -0.74200
O1685       O  0.88786186  0.93862223  0.74196360    -0.73900
C1686       C  0.85250722  0.92065584  0.62029631     0.77800
C1687       C  0.97330733  0.94614995  0.91596231     0.78300
C1688       C  0.92588492  0.03389981  0.66843770     0.77300
C1689       C  0.04034375  0.95150755  0.71231401     0.77700
C1690       C  0.96039721  0.83807581  0.66963845     0.78800
C1691       C  0.91870405  0.93684447  0.75394106     0.77900
Zn1692     Zn  0.90478983  0.98625535  0.81371871     1.49700
Zn1693     Zn  0.97010749  0.99632955  0.85605530     1.49400
Zn1694     Zn  0.91705435  0.92032605  0.86764715     1.49100
Zn1695     Zn  0.98171726  0.93248426  0.80016444     1.49500
O1696       O  0.94426003  0.95470398  0.83446900    -1.83400
O1697       O  0.90358505  0.03431434  0.84142072    -0.74000
O1698       O  0.94465920  0.99902526  0.91747601    -0.73900
O1699       O  0.87012820  0.91373026  0.84313571    -0.73400
O1700       O  0.95791924  0.03941405  0.82174671    -0.74100
O1701       O  0.85548759  0.96374412  0.81244306    -0.73700
O1702       O  0.91356102  0.95285597  0.92356611    -0.74200
O1703       O  0.97974094  0.87912282  0.80544155    -0.73600
O1704       O  0.02366793  0.99239515  0.85860749    -0.74400
O1705       O  0.93925044  0.87089351  0.86189754    -0.73800
O1706       O  0.02814775  0.94228124  0.82341666    -0.74200
O1707       O  0.97210636  0.96358618  0.74485325    -0.74200
O1708       O  0.92640811  0.99588219  0.75122265    -0.73900
C1709       C  0.92880747  0.05317560  0.82961199     0.77800
C1710       C  0.94244510  0.96707746  0.92391816     0.78300
C1711       C  0.84772270  0.93287879  0.82412710     0.77300
C1712       C  0.96270186  0.85920963  0.83341154     0.77700
C1713       C  0.04205443  0.96687497  0.84490295     0.78800
C1714       C  0.93995611  0.96684509  0.74515145     0.77900
C1715       C  0.01946106  0.51748746  0.94521797     0.30700
C1716       C  0.01922291  0.51701560  0.71651851     0.30700
C1717       C  0.01860985  0.48166847  0.97048677    -0.05500
C1718       C  0.05037788  0.53372403  0.97188816    -0.06300
C1719       C  0.98929824  0.53551083  0.97292969    -0.06100
C1720       C  0.01901560  0.48184341  0.68957523    -0.05500
C1721       C  0.04938493  0.53506121  0.69025526    -0.06300
C1722       C  0.98856002  0.53477627  0.69116676    -0.06100
C1723       C  0.00141402  0.45251495  0.70231979    -0.31500
N1724       N  0.99059196  0.43593098  0.66217512     0.15000
C1725       C  0.00106915  0.45292292  0.95597609    -0.31500
H1726       H  0.99333279  0.44797339  0.91939674     0.16900
C1727       C  0.08276021  0.53944494  0.70467831    -0.30500
N1728       N  0.10409428  0.53980270  0.99842697     0.13700
C1729       C  0.08421673  0.53782814  0.95860040    -0.30500
C1730       C  0.97056466  0.56314578  0.70653367    -0.30800
N1731       N  0.96103579  0.58216621  0.66804568     0.14200
H1732       H  0.96987544  0.57250093  0.74322552     0.16800
C1733       C  0.97261174  0.56579964  0.96182645    -0.30800
H1734       H  0.97239866  0.57763460  0.92648007     0.16800
H1735       H  0.09412060  0.53551015  0.92257832     0.16800
H1736       H  0.99311676  0.44659240  0.73865058     0.16900
H1737       H  0.09189652  0.53788722  0.74130952     0.16800
C1738       C  0.01924990  0.51805275  0.88324067     0.30700
C1739       C  0.01965985  0.51746070  0.77801782     0.30700
C1740       C  0.98556067  0.50846436  0.85658836    -0.05500
C1741       C  0.02785363  0.55211416  0.85555436    -0.06300
C1742       C  0.04458108  0.49312588  0.85680219    -0.06100
C1743       C  0.98596025  0.50831775  0.80507023    -0.05500
C1744       C  0.02781358  0.55180578  0.80394284    -0.06300
C1745       C  0.04512215  0.49297965  0.80480950    -0.06100
C1746       C  0.95575227  0.49397621  0.79060255    -0.31500
N1747       N  0.93740685  0.48418667  0.83021017     0.15000
C1748       C  0.95489406  0.49376532  0.87038655    -0.31500
H1749       H  0.94741103  0.48791935  0.90714133     0.16900
C1750       C  0.02862714  0.58567200  0.78899033    -0.30500
N1751       N  0.02895394  0.60646715  0.82826141     0.13700
C1752       C  0.02916753  0.58621938  0.86849263    -0.30500
C1753       C  0.07760400  0.48166247  0.79164039    -0.30800
N1754       N  0.09634680  0.47572210  0.83177937     0.14200
H1755       H  0.08821875  0.48141558  0.75547672     0.16800
C1756       C  0.07622357  0.48120149  0.87105256    -0.30800
H1757       H  0.08544079  0.48025678  0.90763823     0.16800
H1758       H  0.02815738  0.59566256  0.90483979     0.16800
H1759       H  0.94913049  0.48849711  0.75367839     0.16900
H1760       H  0.02564202  0.59462698  0.75224840     0.16800
C1761       C  0.37139111  0.01818068  0.72687501     0.30700
C1762       C  0.37125872  0.01861040  0.95546285     0.30700
C1763       C  0.37424192  0.98279928  0.70042184    -0.05500
C1764       C  0.33968212  0.03394085  0.70102251    -0.06300
C1765       C  0.40045641  0.03755445  0.69973339    -0.06100
C1766       C  0.37472502  0.98343664  0.98169947    -0.05500
C1767       C  0.33873865  0.03326411  0.98236705    -0.06300
C1768       C  0.40004741  0.03854055  0.98132725    -0.06100
C1769       C  0.39214103  0.95442293  0.96678948    -0.31500
N1770       N  0.40360497  0.93683054  0.67244790     0.15000
C1771       C  0.39282268  0.95367679  0.71290529    -0.31500
H1772       H  0.40129015  0.94768099  0.74896763     0.16900
C1773       C  0.30402671  0.03255337  0.97078454    -0.30500
N1774       N  0.28474477  0.03309510  0.67846562     0.13700
C1775       C  0.30617533  0.03463126  0.71640903    -0.30500
C1776       C  0.41622721  0.06820231  0.96707025    -0.30800
N1777       N  0.42536346  0.08530793  0.67271832     0.14200
H1778       H  0.41722470  0.07825423  0.93070203     0.16800
C1779       C  0.41670447  0.06711700  0.71266876    -0.30800
H1780       H  0.41709497  0.07735839  0.74865979     0.16800
H1781       H  0.29808185  0.03226307  0.75319388     0.16800
H1782       H  0.39927086  0.94905184  0.92983608     0.16900
H1783       H  0.29360582  0.02882491  0.93523893     0.16800
C1784       C  0.37225797  0.01896896  0.89393829     0.30700
C1785       C  0.37114722  0.01888012  0.78882082     0.30700
C1786       C  0.40655314  0.01129528  0.86595449    -0.05500
C1787       C  0.34905466  0.99271409  0.86862041    -0.06300
C1788       C  0.36091767  0.05270002  0.86749548    -0.06100
C1789       C  0.40582380  0.01146337  0.81433836    -0.05500
C1790       C  0.34783097  0.99276542  0.81688783    -0.06300
C1791       C  0.36065936  0.05277155  0.81579610    -0.06100
C1792       C  0.43591369  0.99625832  0.79859173    -0.31500
N1793       N  0.45438711  0.98556448  0.83730234     0.15000
C1794       C  0.43706742  0.99527514  0.87824456    -0.31500
H1795       H  0.44437223  0.98845786  0.91457815     0.16900
C1796       C  0.31632877  0.97870265  0.80616620    -0.30500
N1797       N  0.29905998  0.97099659  0.84764855     0.13700
C1798       C  0.31966725  0.97739801  0.88525500    -0.30500
C1799       C  0.36002916  0.08698945  0.80211867    -0.30800
N1800       N  0.36056431  0.10740861  0.84189451     0.14200
H1801       H  0.36212343  0.09638299  0.76566617     0.16800
C1802       C  0.36006773  0.08683627  0.88158579    -0.30800
H1803       H  0.36222059  0.09617210  0.91813791     0.16800
H1804       H  0.31170595  0.97514330  0.92256899     0.16800
H1805       H  0.44218218  0.99051481  0.76142425     0.16900
H1806       H  0.30512302  0.97755844  0.77090555     0.16800
Zn1807     Zn  0.47120881  0.39466976  0.97159989     1.49700
Zn1808     Zn  0.48779170  0.46236885  0.66484804     1.49400
Zn1809     Zn  0.41414075  0.46775890  0.95286794     1.49100
Zn1810     Zn  0.41375111  0.41118686  0.70228845     1.49500
O1811       O  0.44384118  0.43778751  0.98975965    -1.83400
O1812       O  0.52565033  0.39973267  0.97127033    -0.74000
O1813       O  0.48359787  0.51375142  0.65603514    -0.73900
O1814       O  0.41039260  0.43074992  0.90039051    -0.73400
O1815       O  0.53090969  0.45167209  0.63117846    -0.74100
O1816       O  0.44374553  0.38562303  0.91149944    -0.73700
O1817       O  0.43347242  0.52014040  0.95132314    -0.74200
O1818       O  0.36339890  0.43307522  0.71022539    -0.73600
O1819       O  0.49764783  0.44453198  0.72871370    -0.74400
O1820       O  0.36810388  0.47169996  0.98164331    -0.73800
O1821       O  0.45290945  0.41394301  0.74862096    -0.74200
O1822       O  0.40725593  0.36160180  0.68503108    -0.74200
O1823       O  0.46251793  0.35380963  0.01287442    -0.73900
C1824       C  0.54415037  0.42667860  0.96867129     0.77800
C1825       C  0.46033234  0.53423670  0.96906460     0.78300
C1826       C  0.43984646  0.41711882  0.90145310     0.77300
C1827       C  0.35055639  0.45884171  0.01573879     0.77700
C1828       C  0.46663886  0.44278138  0.74067502     0.78800
C1829       C  0.43216176  0.34294721  0.01615728     0.77900
Zn1830     Zn  0.48288214  0.48975657  0.80005223     1.49700
Zn1831     Zn  0.47796002  0.41512692  0.83117338     1.49400
Zn1832     Zn  0.42715584  0.48708657  0.87305460     1.49100
Zn1833     Zn  0.40532282  0.43938242  0.78946786     1.49500
O1834       O  0.44532915  0.45733219  0.82407611    -1.83400
O1835       O  0.53359872  0.46748748  0.80138004    -0.74000
O1836       O  0.49802759  0.42551764  0.89415296    -0.73900
O1837       O  0.43036926  0.53602889  0.85506777    -0.73400
O1838       O  0.52308009  0.41182120  0.79925436    -0.74100
O1839       O  0.48344225  0.53690248  0.82910457    -0.73700
O1840       O  0.46717010  0.47083453  0.91255644    -0.74200
O1841       O  0.36130212  0.45476101  0.81815467    -0.73600
O1842       O  0.45271086  0.36886926  0.82462072    -0.74400
O1843       O  0.37437852  0.48268476  0.88510480    -0.73800
O1844       O  0.40285615  0.38425935  0.79277146    -0.74200
O1845       O  0.41330181  0.47065245  0.73173468    -0.74200
O1846       O  0.45942179  0.50187402  0.73796713    -0.73900
C1847       C  0.54433243  0.43619466  0.79863256     0.77800
C1848       C  0.46989527  0.43872494  0.90590673     0.78300
C1849       C  0.45628472  0.55276841  0.84199217     0.77300
C1850       C  0.35233985  0.47047421  0.85624750     0.77700
C1851       C  0.42283580  0.36085309  0.81001536     0.78800
C1852       C  0.44550626  0.47317345  0.73218973     0.77900
C1853       C  0.37215226  0.27529382  0.80756480    -0.21700
C1854       C  0.39390149  0.25294944  0.83345534     0.10200
C1855       C  0.42479540  0.26664342  0.85144411     0.10600
C1856       C  0.43363307  0.30091127  0.84103680    -0.16700
C1857       C  0.41171958  0.32369310  0.81585575    -0.27100
C1858       C  0.37976679  0.31047224  0.80043979     0.19000
C1859       C  0.38475824  0.21533298  0.83871349     0.12900
C1860       C  0.44871399  0.24644765  0.88352793    -0.11400
H1861       H  0.45769390  0.31019107  0.85481116     0.13200
C1862       C  0.35283303  0.33306219  0.77777686    -0.22300
H1863       H  0.34851629  0.26520119  0.79348896     0.08800
C1864       C  0.35305212  0.20362413  0.85825330     0.05200
C1865       C  0.34553287  0.16815055  0.85851499    -0.19500
C1866       C  0.36932210  0.14354751  0.84196590    -0.11800
C1867       C  0.40195167  0.15496861  0.82649811     0.13900
C1868       C  0.40856603  0.19033517  0.82303761    -0.22200
C1869       C  0.32695071  0.22743087  0.88081975    -0.05300
H1870       H  0.32100612  0.15954644  0.87231149     0.15400
C1871       C  0.43106206  0.13057761  0.81571598    -0.15500
H1872       H  0.43314983  0.19842511  0.80914851     0.09700
H1873       H  0.32949424  0.31849309  0.76863508     0.07600
H1874       H  0.36266827  0.34460877  0.74396258     0.08800
H1875       H  0.34504658  0.35360516  0.80338203     0.07800
H1876       H  0.47349632  0.24202037  0.86455722     0.02700
H1877       H  0.43817677  0.22147358  0.89518594     0.03200
H1878       H  0.45371047  0.26125256  0.91684502     0.06700
H1879       H  0.32185879  0.21925963  0.91867275     0.05700
H1880       H  0.30272727  0.22637026  0.86025536    -0.00100
H1881       H  0.33546295  0.25433661  0.88202037     0.01400
H1882       H  0.43898352  0.13312759  0.77728592     0.05100
H1883       H  0.42460955  0.10355099  0.82358773     0.07000
H1884       H  0.45318123  0.13699989  0.83879879     0.07900
C1885       C  0.45213639  0.17800586  0.99088380    -0.21700
C1886       C  0.42408731  0.19379502  0.67889558     0.10200
C1887       C  0.39499873  0.17487675  0.69322912     0.10600
C1888       C  0.39574782  0.13932940  0.68824591    -0.16700
C1889       C  0.42501173  0.12333594  0.00602435    -0.27100
C1890       C  0.45356851  0.14203451  0.98980719     0.19000
C1891       C  0.42499758  0.23151215  0.68302891     0.12900
C1892       C  0.36304282  0.19092291  0.71476111    -0.11400
H1893       H  0.37322518  0.12476959  0.69762753     0.13200
C1894       C  0.48587549  0.12473575  0.97216206    -0.22300
H1895       H  0.47421083  0.19250656  0.97891099     0.08800
C1896       C  0.45017608  0.24825443  0.71045194     0.05200
C1897       C  0.45085160  0.28400309  0.71067815    -0.19500
C1898       C  0.42658106  0.30564283  0.01784035    -0.11800
C1899       C  0.40157628  0.28951713  0.98945173     0.13900
C1900       C  0.40098007  0.25358815  0.98744090    -0.22200
C1901       C  0.47693030  0.22956973  0.73963415    -0.05300
H1902       H  0.47057189  0.29685178  0.73095857     0.15400
C1903       C  0.37680595  0.30991548  0.95910136    -0.15500
H1904       H  0.38318671  0.24119325  0.96351061     0.09700
H1905       H  0.50764925  0.13265625  0.99493834     0.07600
H1906       H  0.49107792  0.13248683  0.93417869     0.08800
H1907       H  0.48430195  0.09638875  0.97357357     0.07800
H1908       H  0.34152765  0.18813597  0.68920612     0.02700
H1909       H  0.36593267  0.21836847  0.72364056     0.03200
H1910       H  0.35618293  0.17758900  0.74889211     0.06700
H1911       H  0.47613131  0.23900793  0.77735125     0.05700
H1912       H  0.50269197  0.23478183  0.72414615    -0.00100
H1913       H  0.47325747  0.20149595  0.74103058     0.01400
H1914       H  0.35999774  0.29307726  0.93778606     0.05100
H1915       H  0.39107176  0.32653952  0.93339986     0.07000
H1916       H  0.36008551  0.32594879  0.98268562     0.07900
C1917       C  0.18630825  0.50520982  0.85118724    -0.21700
C1918       C  0.20542434  0.47508207  0.84302395     0.10200
C1919       C  0.18766633  0.44504865  0.82896771     0.10600
C1920       C  0.15171403  0.44584673  0.82586909    -0.16700
C1921       C  0.13314276  0.47618432  0.83327530    -0.27100
C1922       C  0.15097799  0.50666842  0.84340062     0.19000
C1923       C  0.24346556  0.47609293  0.84992236     0.12900
C1924       C  0.20533500  0.41186282  0.81584547    -0.11400
H1925       H  0.13802180  0.42274132  0.81683425     0.13200
C1926       C  0.13406221  0.54149378  0.84359295    -0.22300
H1927       H  0.19926230  0.52837200  0.86189681     0.08800
C1928       C  0.26442500  0.50149109  0.82797402     0.05200
C1929       C  0.29973702  0.50129956  0.83646326    -0.19500
C1930       C  0.31532795  0.47554026  0.86401022    -0.11800
C1931       C  0.29473078  0.45052196  0.88662192     0.13900
C1932       C  0.25904265  0.45193797  0.88080971    -0.22200
C1933       C  0.25126376  0.52815131  0.79316143    -0.05300
H1934       H  0.31572423  0.51987458  0.81793000     0.15400
C1935       C  0.30966417  0.42105721  0.91496684    -0.15500
H1936       H  0.24341722  0.43284052  0.89865695     0.09700
H1937       H  0.14552548  0.55735585  0.81440791     0.07600
H1938       H  0.13880080  0.55444679  0.87848611     0.08800
H1939       H  0.10615662  0.54053767  0.83715813     0.07800
H1940       H  0.19740174  0.39147422  0.84157895     0.02700
H1941       H  0.23348993  0.41352030  0.81608880     0.03200
H1942       H  0.19788791  0.40428638  0.77878947     0.06700
H1943       H  0.26768536  0.52847522  0.76022748     0.05700
H1944       H  0.25221358  0.55383182  0.81018155    -0.00100
H1945       H  0.22492393  0.52311697  0.78118164     0.01400
H1946       H  0.29814868  0.42055552  0.95174375     0.05100
H1947       H  0.33783125  0.42272429  0.91863521     0.07000
H1948       H  0.30368086  0.39659052  0.89667188     0.07900
C1949       C  0.19824276  0.53732403  0.69064993    -0.21700
C1950       C  0.20807024  0.50563183  0.00971048     0.10200
C1951       C  0.18259675  0.48396493  0.99073679     0.10600
C1952       C  0.14889475  0.49636185  0.98621408    -0.16700
C1953       C  0.13966635  0.52981206  0.99991126    -0.27100
C1954       C  0.16463655  0.55025856  0.68642680     0.19000
C1955       C  0.24478241  0.49460647  0.01388885     0.12900
C1956       C  0.18972867  0.44777838  0.97442431    -0.11400
H1957       H  0.12934258  0.47955057  0.97251851     0.13200
C1958       C  0.15734744  0.58651445  0.70210729    -0.22300
H1959       H  0.21761139  0.55368596  0.70577025     0.08800
C1960       C  0.27070724  0.51104151  0.98689428     0.05200
C1961       C  0.30476960  0.50005367  0.99152893    -0.19500
C1962       C  0.31419511  0.47156895  0.02035994    -0.11800
C1963       C  0.28667980  0.45078706  0.71128657     0.13900
C1964       C  0.25259231  0.46342404  0.70862760    -0.22200
C1965       C  0.26252480  0.53913300  0.95105411    -0.05300
H1966       H  0.32408960  0.51332707  0.97049254     0.15400
C1967       C  0.29365732  0.41790912  0.73812807    -0.15500
H1968       H  0.23236731  0.45030960  0.72806473     0.09700
H1969       H  0.17368714  0.60431640  0.68088901     0.07600
H1970       H  0.16333962  0.58930973  0.74099118     0.08800
H1971       H  0.13026158  0.59425284  0.69667791     0.07800
H1972       H  0.17471154  0.42973101  0.99714108     0.02700
H1973       H  0.21703160  0.44030022  0.97652205     0.03200
H1974       H  0.18181152  0.44489898  0.93627943     0.06700
H1975       H  0.28547699  0.54692254  0.92986292     0.05700
H1976       H  0.25259918  0.56221296  0.96991040    -0.00100
H1977       H  0.24312010  0.53004429  0.92522025     0.01400
H1978       H  0.26976807  0.40629442  0.75210012     0.05100
H1979       H  0.31071210  0.42277168  0.76911556     0.07000
H1980       H  0.30583341  0.39892523  0.71343361     0.07900
C1981       C  0.13619715  0.93764339  0.84693768    -0.21700
C1982       C  0.15198441  0.96602243  0.86763079     0.10200
C1983       C  0.13105461  0.99357539  0.88410987     0.10600
C1984       C  0.09557354  0.99303698  0.87627195    -0.16700
C1985       C  0.07975803  0.96504284  0.85431606    -0.27100
C1986       C  0.10052539  0.93599553  0.84187518     0.19000
C1987       C  0.19026246  0.96736810  0.86666298     0.12900
C1988       C  0.14495232  0.02395696  0.91050624    -0.11400
H1989       H  0.08018776  0.01489021  0.88758687     0.13200
C1990       C  0.08600076  0.90261888  0.82414277    -0.22300
H1991       H  0.15207640  0.91652763  0.83424596     0.08800
C1992       C  0.21155460  0.94056214  0.88457772     0.05200
C1993       C  0.24713852  0.94155198  0.87579713    -0.19500
C1994       C  0.26232459  0.96981694  0.85299211    -0.11800
C1995       C  0.24137527  0.99841834  0.84119376     0.13900
C1996       C  0.20576808  0.99566490  0.84448129    -0.22200
C1997       C  0.19796892  0.91139158  0.91473082    -0.05300
H1998       H  0.26334728  0.92069934  0.88827619     0.15400
C1999       C  0.25532250  0.03327383  0.82944220    -0.15500
H2000       H  0.18998401  0.01670454  0.83161992     0.09700
H2001       H  0.10615889  0.88264064  0.81910622     0.07600
H2002       H  0.07355501  0.90619384  0.78874740     0.08800
H2003       H  0.06730055  0.89255184  0.85099870     0.07800
H2004       H  0.14141128  0.04747727  0.88836075     0.02700
H2005       H  0.17239900  0.02103536  0.91928288     0.03200
H2006       H  0.13058840  0.02711508  0.94500473     0.06700
H2007       H  0.21144828  0.91070244  0.94988360     0.05700
H2008       H  0.20263386  0.88677584  0.89569098    -0.00100
H2009       H  0.17025444  0.91392046  0.92290648     0.01400
H2010       H  0.24729122  0.04105087  0.79261932     0.05100
H2011       H  0.28346031  0.03462033  0.83275461     0.07000
H2012       H  0.24457149  0.05216962  0.85553799     0.07900
C2013       C  0.95908211  0.76252693  0.81062943    -0.21700
C2014       C  0.99085179  0.75112591  0.82867605     0.10200
C2015       C  0.01298135  0.77592521  0.84874616     0.10600
C2016       C  0.00278906  0.81073444  0.85016544    -0.16700
C2017       C  0.97089117  0.82179443  0.83279379    -0.27100
C2018       C  0.94864572  0.79720816  0.81304287     0.19000
C2019       C  0.99988034  0.71333293  0.82727310     0.12900
C2020       C  0.04728156  0.76611858  0.86945834    -0.11400
H2021       H  0.01992228  0.82959950  0.86502112     0.13200
C2022       C  0.91398230  0.80667970  0.79331454    -0.22300
H2023       H  0.94236182  0.74430026  0.79355973     0.08800
C2024       C  0.97948719  0.68835220  0.85099842     0.05200
C2025       C  0.99009024  0.65371656  0.85142747    -0.19500
C2026       C  0.02006648  0.64266454  0.82764134    -0.11800
C2027       C  0.03987379  0.66715372  0.80239456     0.13900
C2028       C  0.02965626  0.70202179  0.80264231    -0.22200
C2029       C  0.94680268  0.69789535  0.87709476    -0.05300
H2030       H  0.97453912  0.63482322  0.86991008     0.15400
C2031       C  0.07229429  0.65671061  0.77632396    -0.15500
H2032       H  0.04494704  0.72052875  0.78305017     0.09700
H2033       H  0.89384556  0.79296273  0.81409138     0.07600
H2034       H  0.91253611  0.79894489  0.75489093     0.08800
H2035       H  0.90831987  0.83451396  0.79525057     0.07800
H2036       H  0.06480585  0.75688361  0.84053959     0.02700
H2037       H  0.04421654  0.74583923  0.89719135     0.03200
H2038       H  0.05978724  0.78827399  0.88687226     0.06700
H2039       H  0.93653170  0.67592340  0.89813470     0.05700
H2040       H  0.92688632  0.70567451  0.85093951    -0.00100
H2041       H  0.95142346  0.71927901  0.90239613     0.01400
H2042       H  0.06641417  0.63903395  0.74632327     0.05100
H2043       H  0.08997016  0.64376040  0.80189050     0.07000
H2044       H  0.08565624  0.67919335  0.76056345     0.07900
C2045       C  0.13836412  0.94680793  0.02909841    -0.21700
C2046       C  0.14710404  0.98141339  0.71207153     0.10200
C2047       C  0.12167726  0.00087675  0.73705627     0.10600
C2048       C  0.08762093  0.98920766  0.73911822    -0.16700
C2049       C  0.07781849  0.95771120  0.71912443    -0.27100
C2050       C  0.10451334  0.93466894  0.03381326     0.19000
C2051       C  0.18318887  0.99426903  0.70344527     0.12900
C2052       C  0.12916014  0.03431652  0.76175646    -0.11400
H2053       H  0.06819935  0.00531592  0.75603930     0.13200
C2054       C  0.09535307  0.90084958  0.01156197    -0.22300
H2055       H  0.15652972  0.93216156  0.00771259     0.08800
C2056       C  0.21275966  0.97412955  0.71353365     0.05200
C2057       C  0.24549865  0.98681571  0.70190786    -0.19500
C2058       C  0.25027400  0.01982704  0.68262389    -0.11800
C2059       C  0.22079550  0.03826253  0.00659319     0.13900
C2060       C  0.18823638  0.02443880  0.01671085    -0.22200
C2061       C  0.21120320  0.93984607  0.73871468    -0.05300
H2062       H  0.26779397  0.97106084  0.70924412     0.15400
C2063       C  0.22276794  0.07398552  0.98626822    -0.15500
H2064       H  0.16580287  0.03992169  0.00907464     0.09700
H2065       H  0.07588971  0.90485881  0.98306471     0.07600
H2066       H  0.08487322  0.88352170  0.03985206     0.08800
H2067       H  0.11800866  0.88801456  0.99482417     0.07800
H2068       H  0.11599645  0.05559475  0.74247651     0.02700
H2069       H  0.15681713  0.03992196  0.76370761     0.03200
H2070       H  0.11941336  0.03355720  0.79944003     0.06700
H2071       H  0.22852242  0.93981479  0.77022527     0.05700
H2072       H  0.21978570  0.91939755  0.71346610    -0.00100
H2073       H  0.18538272  0.93366459  0.75282693     0.01400
H2074       H  0.20923859  0.07510704  0.95119392     0.05100
H2075       H  0.24949701  0.08239311  0.98010795     0.07000
H2076       H  0.21026510  0.09221793  0.01176173     0.07900
C2077       C  0.93555827  0.67141020  0.70560214    -0.21700
C2078       C  0.96468844  0.69038600  0.02017547     0.10200
C2079       C  0.98845598  0.67370875  0.98937346     0.10600
C2080       C  0.98637723  0.63839094  0.98360355    -0.16700
C2081       C  0.95863446  0.61884357  0.67102736    -0.27100
C2082       C  0.93408899  0.63565342  0.70058157     0.19000
C2083       C  0.96249244  0.72815525  0.02116889     0.12900
C2084       C  0.01605923  0.69278508  0.96219632    -0.11400
H2085       H  0.00548540  0.62558334  0.96191210     0.13200
C2086       C  0.90595639  0.61674017  0.72650890    -0.22300
H2087       H  0.91648014  0.68456760  0.72760428     0.08800
C2088       C  0.93409273  0.74571230  0.00145401     0.05200
C2089       C  0.93576678  0.78116250  0.99507515    -0.19500
C2090       C  0.96132601  0.80038630  0.67372700    -0.11800
C2091       C  0.98849372  0.78210004  0.69575726     0.13900
C2092       C  0.98639522  0.74642940  0.69974594    -0.22200
C2093       C  0.90187642  0.72743924  0.98712255    -0.05300
H2094       H  0.91393105  0.79462337  0.97995187     0.15400
C2095       C  0.02023852  0.79947760  0.71375431    -0.15500
H2096       H  0.00696532  0.73230080  0.71669472     0.09700
H2097       H  0.88074834  0.62742752  0.71551621     0.07600
H2098       H  0.90879310  0.61994600  0.76611358     0.08800
H2099       H  0.90603686  0.58897341  0.71822197     0.07800
H2100       H  0.03512641  0.70293044  0.98769938     0.02700
H2101       H  0.00458556  0.71427712  0.94155574     0.03200
H2102       H  0.03013074  0.67597599  0.93633413     0.06700
H2103       H  0.88347610  0.74494100  0.96885702     0.05700
H2104       H  0.88888678  0.71706123  0.01973781    -0.00100
H2105       H  0.90787858  0.70608430  0.96216777     0.01400
H2106       H  0.03951102  0.78066392  0.72706628     0.05100
H2107       H  0.01375228  0.81669583  0.74431117     0.07000
H2108       H  0.03224747  0.81441207  0.68398167     0.07900
C2109       C  0.48374751  0.71775020  0.84244573    -0.21700
C2110       C  0.45363864  0.70126060  0.82913545     0.10200
C2111       C  0.42508224  0.72141880  0.81434926     0.10600
C2112       C  0.42700119  0.75737143  0.81658016    -0.16700
C2113       C  0.45756812  0.77346278  0.82878959    -0.27100
C2114       C  0.48701116  0.75310521  0.83799713     0.19000
C2115       C  0.45366756  0.66315597  0.83075018     0.12900
C2116       C  0.39290756  0.70630346  0.79412644    -0.11400
H2117       H  0.40499975  0.77300011  0.80696608     0.13200
C2118       C  0.52282436  0.76695733  0.83868293    -0.22300
H2119       H  0.50582869  0.70264245  0.85336417     0.08800
C2120       C  0.48008769  0.64334324  0.80888106     0.05200
C2121       C  0.48078377  0.60786486  0.81539993    -0.19500
C2122       C  0.45460026  0.59083564  0.84037508    -0.11800
C2123       C  0.42723437  0.61055009  0.86079125     0.13900
C2124       C  0.42819802  0.64644628  0.85762599    -0.22200
C2125       C  0.50711864  0.65814178  0.77612195    -0.05300
H2126       H  0.50136573  0.59324812  0.79851908     0.15400
C2127       C  0.39640509  0.59461581  0.88493650    -0.15500
H2128       H  0.40839641  0.66166527  0.87525690     0.09700
H2129       H  0.53761675  0.75583783  0.80796981     0.07600
H2130       H  0.53585025  0.75899230  0.87240958     0.08800
H2131       H  0.52369297  0.79509024  0.83479199     0.07800
H2132       H  0.37082510  0.71273602  0.81806640     0.02700
H2133       H  0.39433180  0.67815579  0.78984703     0.03200
H2134       H  0.38821650  0.71729649  0.75768553     0.06700
H2135       H  0.50799626  0.64293324  0.74247208     0.05700
H2136       H  0.53248859  0.65631700  0.79373547    -0.00100
H2137       H  0.50187710  0.68502995  0.76539414     0.01400
H2138       H  0.37831108  0.61428100  0.89934611     0.05100
H2139       H  0.40426603  0.57820667  0.91562475     0.07000
H2140       H  0.38219539  0.57912580  0.85835409     0.07900
C2141       C  0.76741570  0.87774899  0.83739335    -0.21700
C2142       C  0.74236395  0.89847930  0.81584055     0.10200
C2143       C  0.75315763  0.92842119  0.79094632     0.10600
C2144       C  0.78749411  0.93890133  0.79369826    -0.16700
C2145       C  0.81239966  0.91875917  0.81698053    -0.27100
C2146       C  0.80232334  0.88594341  0.83490839     0.19000
C2147       C  0.70531599  0.88946495  0.82274632     0.12900
C2148       C  0.72962943  0.94930815  0.75955705    -0.11400
H2149       H  0.79484068  0.96294293  0.77701417     0.13200
C2150       C  0.82754751  0.85855978  0.85041514    -0.22300
H2151       H  0.75962950  0.85467679  0.85626700     0.08800
C2152       C  0.69219616  0.85613754  0.81440010     0.05200
C2153       C  0.65759562  0.84938779  0.82479478    -0.19500
C2154       C  0.63474913  0.87544002  0.83875652    -0.11800
C2155       C  0.64721695  0.90919592  0.84348557     0.13900
C2156       C  0.68251873  0.91507305  0.83929244    -0.22200
C2157       C  0.71281568  0.82746830  0.79169890    -0.05300
H2158       H  0.64758895  0.82402989  0.81814882     0.15400
C2159       C  0.62411976  0.94005889  0.84892342    -0.15500
H2160       H  0.69200585  0.94062150  0.84600838     0.09700
H2161       H  0.84600612  0.85333319  0.82054248     0.07600
H2162       H  0.81467815  0.83401481  0.85921149     0.08800
H2163       H  0.84140544  0.86623647  0.88310499     0.07800
H2164       H  0.72603311  0.97530635  0.77506055     0.02700
H2165       H  0.70431219  0.93732193  0.75454924     0.03200
H2166       H  0.74156013  0.95161606  0.72323166     0.06700
H2167       H  0.69962913  0.81846468  0.75876912     0.05700
H2168       H  0.71497285  0.80577534  0.81758384    -0.00100
H2169       H  0.73880220  0.83509840  0.78025701     0.01400
H2170       H  0.62863732  0.95266324  0.88406392     0.05100
H2171       H  0.59670752  0.93388236  0.84588459     0.07000
H2172       H  0.62986279  0.95865816  0.81954747     0.07900
C2173       C  0.50411138  0.62088145  0.94884003    -0.21700
C2174       C  0.48240318  0.64166269  0.64630250     0.10200
C2175       C  0.45322628  0.62708647  0.66974780     0.10600
C2176       C  0.44519741  0.59213577  0.66270785    -0.16700
C2177       C  0.46666626  0.57207809  0.96627133    -0.27100
C2178       C  0.49691488  0.58562266  0.94490074     0.19000
C2179       C  0.49228451  0.67916397  0.65122875     0.12900
C2180       C  0.43075669  0.64676830  0.70466852    -0.11400
H2181       H  0.42324888  0.58139475  0.68143837     0.13200
C2182       C  0.52292849  0.56357149  0.91867608    -0.22300
H2183       H  0.52634743  0.63097199  0.93008257     0.08800
C2184       C  0.52587241  0.69022754  0.66371222     0.05200
C2185       C  0.53294235  0.72562433  0.66758719    -0.19500
C2186       C  0.51117994  0.75137792  0.99347602    -0.11800
C2187       C  0.47763918  0.74107327  0.98157968     0.13900
C2188       C  0.47042211  0.70609576  0.97491572    -0.22200
C2189       C  0.55512683  0.66595461  0.67452660    -0.05300
H2190       H  0.55855137  0.73377123  0.67656857     0.15400
C2191       C  0.44842305  0.76627001  0.97716902    -0.15500
H2192       H  0.44487990  0.69895013  0.96403184     0.09700
H2193       H  0.54748583  0.56391441  0.93852885     0.07600
H2194       H  0.52751009  0.57396745  0.88185105     0.08800
H2195       H  0.51492487  0.53655716  0.91505887     0.07800
H2196       H  0.40499167  0.65060848  0.68885485     0.02700
H2197       H  0.44132818  0.67193049  0.71471568     0.03200
H2198       H  0.42791883  0.63187532  0.73868900     0.06700
H2199       H  0.56612499  0.67233755  0.71019551     0.05700
H2200       H  0.57541989  0.66882860  0.64648598    -0.00100
H2201       H  0.54760097  0.63876091  0.67641390     0.01400
H2202       H  0.43819549  0.76557018  0.93990946     0.05100
H2203       H  0.45580786  0.79287802  0.98576121     0.07000
H2204       H  0.42771382  0.75906867  0.00293032     0.07900
C2205       C  0.68679989  0.87853140  0.95980655    -0.21700
C2206       C  0.70390464  0.91099702  0.62859679     0.10200
C2207       C  0.68349239  0.94072071  0.63865560     0.10600
C2208       C  0.64763427  0.93784979  0.64288231    -0.16700
C2209       C  0.63124560  0.90616037  0.64095999    -0.27100
C2210       C  0.65122928  0.87605302  0.96811750     0.19000
C2211       C  0.74253107  0.91151073  0.62289981     0.12900
C2212       C  0.69787144  0.97587715  0.64747750    -0.11400
H2213       H  0.63222304  0.96055598  0.65003705     0.13200
C2214       C  0.63630981  0.84064634  0.97047963    -0.22300
H2215       H  0.70120011  0.85539092  0.95143085     0.08800
C2216       C  0.76448543  0.88721850  0.64592005     0.05200
C2217       C  0.80007596  0.88758258  0.63664803    -0.19500
C2218       C  0.81547502  0.91469048  0.61145225    -0.11800
C2219       C  0.79447478  0.93921998  0.92900927     0.13900
C2220       C  0.75872616  0.93505459  0.93032120    -0.22200
C2221       C  0.75224414  0.86289983  0.68464877    -0.05300
H2222       H  0.81635994  0.86901765  0.65481816     0.15400
C2223       C  0.80761149  0.97294718  0.90987581    -0.15500
H2224       H  0.74281703  0.95345519  0.91129312     0.09700
H2225       H  0.64968341  0.82550635  0.99876010     0.07600
H2226       H  0.64008693  0.82765092  0.93518156     0.08800
H2227       H  0.60873095  0.84057781  0.97983660     0.07800
H2228       H  0.68977890  0.99350728  0.61806485     0.02700
H2229       H  0.72601723  0.97639857  0.65022049     0.03200
H2230       H  0.68770111  0.98591458  0.68231967     0.06700
H2231       H  0.76846387  0.86582286  0.71709108     0.05700
H2232       H  0.75450797  0.83609427  0.67164456    -0.00100
H2233       H  0.72563337  0.86812440  0.69678980     0.01400
H2234       H  0.79698577  0.97830025  0.87363761     0.05100
H2235       H  0.83586911  0.97381329  0.90689620     0.07000
H2236       H  0.79900116  0.99384613  0.93438110     0.07900
C2237       C  0.90128179  0.14651327  0.84627948    -0.21700
C2238       C  0.92709318  0.16338321  0.81987496     0.10200
C2239       C  0.95146232  0.14368907  0.79373153     0.10600
C2240       C  0.95049758  0.10794877  0.79691331    -0.16700
C2241       C  0.92545309  0.09095345  0.82460178    -0.27100
C2242       C  0.89961939  0.11058068  0.84803781     0.19000
C2243       C  0.92892083  0.20134395  0.82270145     0.12900
C2244       C  0.97892190  0.15918241  0.76209296    -0.11400
H2245       H  0.96977691  0.09320786  0.77739029     0.13200
C2246       C  0.87075010  0.09416228  0.87581743    -0.22300
H2247       H  0.88268743  0.16165272  0.86647179     0.08800
C2248       C  0.90086689  0.22258010  0.81005190     0.05200
C2249       C  0.90321031  0.25790553  0.81690849    -0.19500
C2250       C  0.93365596  0.27312287  0.83197906    -0.11800
C2251       C  0.96147427  0.25219173  0.84559458     0.13900
C2252       C  0.95860905  0.21644496  0.84149864    -0.22200
C2253       C  0.86845380  0.20926517  0.78795877    -0.05300
H2254       H  0.88121571  0.27404709  0.80948263     0.15400
C2255       C  0.99414574  0.26683908  0.86456675    -0.15500
H2256       H  0.97982527  0.20021979  0.85259891     0.09700
H2257       H  0.85574206  0.07769501  0.85138241     0.07600
H2258       H  0.85275168  0.11354056  0.89085258     0.08800
H2259       H  0.88103332  0.07866447  0.90619308     0.07800
H2260       H  0.00448596  0.15265857  0.77691959     0.02700
H2261       H  0.97676101  0.18740109  0.75887504     0.03200
H2262       H  0.97721808  0.14841459  0.72511766     0.06700
H2263       H  0.86304220  0.22353012  0.75409822     0.05700
H2264       H  0.84669283  0.21328617  0.81347028    -0.00100
H2265       H  0.87002339  0.18178620  0.77827998     0.01400
H2266       H  0.99872388  0.25687068  0.90159893     0.05100
H2267       H  0.99342232  0.29523244  0.86620111     0.07000
H2268       H  0.01587087  0.25901925  0.84077543     0.07900
C2269       C  0.71446903  0.42009822  0.79732013    -0.21700
C2270       C  0.68887830  0.39525094  0.80288510     0.10200
C2271       C  0.69945691  0.36051364  0.81022820     0.10600
C2272       C  0.73463666  0.35233998  0.81204241    -0.16700
C2273       C  0.75975868  0.37763872  0.80974342    -0.27100
C2274       C  0.74927784  0.41228710  0.80396900     0.19000
C2275       C  0.65194444  0.40685774  0.80110801     0.12900
C2276       C  0.67516903  0.33114910  0.81842754    -0.11400
H2277       H  0.74264362  0.32596158  0.81772153     0.13200
C2278       C  0.77334370  0.44212255  0.80674204    -0.22300
H2279       H  0.70707807  0.44648118  0.79027544     0.08800
C2280       C  0.63916251  0.43555612  0.82767790     0.05200
C2281       C  0.60483662  0.44625338  0.82244235    -0.19500
C2282       C  0.58160688  0.42723321  0.79544980    -0.11800
C2283       C  0.59401854  0.39785240  0.77031265     0.13900
C2284       C  0.62916812  0.38966134  0.77090991    -0.22200
C2285       C  0.66003982  0.45440928  0.86437004    -0.05300
H2286       H  0.59549146  0.46811207  0.84293854     0.15400
C2287       C  0.57054224  0.37439123  0.74332611    -0.15500
H2288       H  0.63872175  0.36865782  0.74893642     0.09700
H2289       H  0.76469197  0.45956025  0.83613290     0.07600
H2290       H  0.77300629  0.45654463  0.77208995     0.08800
H2291       H  0.80002991  0.43461026  0.81472026     0.07800
H2292       H  0.67800162  0.31248254  0.78844691     0.02700
H2293       H  0.64798409  0.33886894  0.82133850     0.03200
H2294       H  0.68161705  0.31798659  0.85285795     0.06700
H2295       H  0.64449279  0.45816680  0.89768651     0.05700
H2296       H  0.66708639  0.47998821  0.84993824    -0.00100
H2297       H  0.68339715  0.44018180  0.87530677     0.01400
H2298       H  0.58497985  0.35549297  0.72095381     0.05100
H2299       H  0.55373233  0.38947851  0.71926680     0.07000
H2300       H  0.55447336  0.35982022  0.76935014     0.07900
C2301       C  0.91979818  0.20343219  0.67406174    -0.21700
C2302       C  0.89569172  0.18099768  0.99347492     0.10200
C2303       C  0.86254545  0.19327839  0.98046591     0.10600
C2304       C  0.85499412  0.22869384  0.98245454    -0.16700
C2305       C  0.88184720  0.25224794  0.66006458    -0.27100
C2306       C  0.91404887  0.23896126  0.67434485     0.19000
C2307       C  0.90516735  0.14338784  0.99503882     0.12900
C2308       C  0.83454200  0.17024036  0.96310870    -0.11400
H2309       H  0.82968712  0.23790503  0.97283028     0.13200
C2310       C  0.94350533  0.26146560  0.68791369    -0.22300
H2311       H  0.94429089  0.19353626  0.68578524     0.08800
C2312       C  0.93421722  0.12929080  0.97058433     0.05200
C2313       C  0.94187731  0.09397747  0.97488336    -0.19500
C2314       C  0.91766013  0.07142483  0.66697632    -0.11800
C2315       C  0.88890555  0.08614873  0.69125632     0.13900
C2316       C  0.88261143  0.12164896  0.68755661    -0.22200
C2317       C  0.95756979  0.15033263  0.93886219    -0.05300
H2318       H  0.96395409  0.08364337  0.95565455     0.15400
C2319       C  0.86497978  0.06503275  0.72205386    -0.15500
H2320       H  0.86118217  0.13296655  0.70713767     0.09700
H2321       H  0.96611962  0.25497049  0.66497763     0.07600
H2322       H  0.95017511  0.25700399  0.72633195     0.08800
H2323       H  0.93805848  0.28904332  0.68218332     0.07800
H2324       H  0.81224536  0.17200182  0.98819203     0.02700
H2325       H  0.84245741  0.14309579  0.96054279     0.03200
H2326       H  0.82640533  0.17857497  0.92653380     0.06700
H2327       H  0.96152699  0.13729040  0.90369176     0.05700
H2328       H  0.98283690  0.15281114  0.95645427    -0.00100
H2329       H  0.94715771  0.17619464  0.93095884     0.01400
H2330       H  0.87964663  0.05099570  0.75005334     0.05100
H2331       H  0.85104652  0.04659358  0.69921576     0.07000
H2332       H  0.84548479  0.08121446  0.74082233     0.07900
C2333       C  0.70781616  0.38184133  0.67682885    -0.21700
C2334       C  0.69210564  0.42018113  0.99540085     0.10200
C2335       C  0.71360003  0.44938456  0.99178736     0.10600
C2336       C  0.74870838  0.44595685  0.00157936    -0.16700
C2337       C  0.76389024  0.41391461  0.00990315    -0.27100
C2338       C  0.74356821  0.37850851  0.67966909     0.19000
C2339       C  0.65424600  0.42160098  0.98637756     0.12900
C2340       C  0.70160845  0.48415027  0.97445791    -0.11400
H2341       H  0.76511911  0.46810501  0.99811136     0.13200
C2342       C  0.75833675  0.34281968  0.68315425    -0.22300
H2343       H  0.69225252  0.35957118  0.68395676     0.08800
C2344       C  0.63709297  0.39758341  0.95676553     0.05200
C2345       C  0.60119056  0.39901544  0.95263596    -0.19500
C2346       C  0.58205796  0.42559260  0.97364258    -0.11800
C2347       C  0.59995962  0.44400131  0.66784673     0.13900
C2348       C  0.63472129  0.43895678  0.67772156    -0.22200
C2349       C  0.65563440  0.37132010  0.92652063    -0.05300
H2350       H  0.58825245  0.38018015  0.93083632     0.15400
C2351       C  0.58246695  0.47492895  0.68992186    -0.15500
H2352       H  0.64726593  0.45586835  0.70285800     0.09700
H2353       H  0.74818710  0.32702329  0.65332932     0.07600
H2354       H  0.75078469  0.33089445  0.71802481     0.08800
H2355       H  0.78651019  0.34209050  0.67946239     0.07800
H2356       H  0.70412319  0.50308117  0.00403121     0.02700
H2357       H  0.67496933  0.48467502  0.96157430     0.03200
H2358       H  0.71780379  0.49239012  0.94339874     0.06700
H2359       H  0.64553980  0.37275634  0.88941688     0.05700
H2360       H  0.65085199  0.34527689  0.94120209    -0.00100
H2361       H  0.68353061  0.37576438  0.92356333     0.01400
H2362       H  0.59964320  0.48921600  0.71427791     0.05100
H2363       H  0.55989154  0.46700830  0.71139393     0.07000
H2364       H  0.57434364  0.49291443  0.66096659     0.07900
loop_ 
_geom_bond_atom_site_label_1 
_geom_bond_atom_site_label_2 
_geom_bond_distance 
_geom_bond_site_symmetry_2 
_ccdc_geom_bond_type 
C1            C3   1.541       .  S
C1            C5   1.567       .  S
C1            C4   1.573       .  S
C1           C24   1.703       .  S
C2            C6   1.574       .  S
C2            C8   1.557       .  S
C2            C7   1.555       .  S
C2           C25   1.723       .  S
C3           C11   1.373       .  A
C3         C1582   1.424   1_554  A
C4           C15   1.381       .  A
C4         C1583   1.429   1_554  A
C5           C19   1.382       .  A
C5         C1584   1.441   1_554  A
C6            C9   1.387       .  A
C6          C791   1.424       .  A
C7           C13   1.382       .  A
C7          C792   1.429       .  A
C8           C16   1.381       .  A
C8          C793   1.442       .  A
C9           H22   1.080       .  S
C9          N798   1.368       .  A
N10          C11   1.359   1_556  A
N10        C1585   1.368       .  A
N10         N148   1.421       .  S
C11          H12   1.080       .  S
C13          H23   1.082       .  S
C13         N802   1.356       .  A
N14          C15   1.360   1_556  A
N14        C1589   1.357       .  A
N14         C729   1.446       .  S
C15          H21   1.072       .  S
C16          H18   1.069       .  S
C16          N17   1.336       .  A
N17         C807   1.344       .  A
N17         C761   1.438       .  S
C19          H20   1.068       .  S
C19        N1593   1.344       .  A
C24          C26   1.573       .  S
C24          C28   1.545       .  S
C24          C27   1.559       .  S
C25          C29   1.548       .  S
C25          C31   1.566       .  S
C25          C30   1.574       .  S
C26          C34   1.381       .  A
C26          C29   1.436       .  A
C27          C38   1.376       .  A
C27          C30   1.436       .  A
C28          C42   1.373       .  A
C28          C31   1.434       .  A
C29          C32   1.375       .  A
C30          C36   1.399       .  A
C31          C39   1.380       .  A
C32          H45   1.078       .  S
C32          N33   1.356       .  A
N33          C34   1.363       .  A
N33         N171   1.418       .  S
C34          H35   1.078       .  S
C36          H46   1.070       .  S
C36          N37   1.343       .  A
N37          C38   1.340       .  A
N37         C697   1.442       .  S
C38          H44   1.070       .  S
C39          H41   1.077       .  S
C39          N40   1.352       .  A
N40          C42   1.353       .  A
N40         C674   1.435       .  S
C42          H43   1.076       .  S
C47          C49   1.551       .  S
C47          C51   1.564       .  S
C47          C50   1.572       .  S
C47          C70   1.704       .  S
C48          C52   1.564       .  S
C48          C54   1.578       .  S
C48          C53   1.568       .  S
C48          C71   1.726       .  S
C49          C57   1.381       .  A
C49         C840   1.421       .  A
C50          C61   1.376       .  A
C50         C841   1.430       .  A
C51          C65   1.379       .  A
C51         C842   1.437       .  A
C52          C55   1.383       .  A
C52        C1625   1.421   1_554  A
C53          C59   1.393       .  A
C53        C1626   1.429   1_554  A
C54          C62   1.402       .  A
C54        C1627   1.439   1_554  A
C55          H68   1.079       .  S
C55          N56   1.361       .  A
N56        C1633   1.364   1_554  A
N56         N194   1.422       .  S
C57          H58   1.080       .  S
C57         N844   1.364       .  A
C59          H69   1.079       .  S
C59          N60   1.363   1_554  A
N60        C1637   1.356       .  A
N60        C2186   1.452       .  S
C61          H67   1.067       .  S
C61         N848   1.356       .  A
C62          H64   1.071       .  S
C62          N63   1.345   1_554  A
N63        C1641   1.343       .  A
N63         C633   1.449       .  S
C65          H66   1.070       .  S
C65         N851   1.343       .  A
C70          C72   1.566       .  S
C70          C74   1.550       .  S
C70          C73   1.569       .  S
C71          C75   1.570       .  S
C71          C77   1.561       .  S
C71          C76   1.555       .  S
C72          C80   1.381       .  A
C72          C75   1.439       .  A
C73          C84   1.386       .  A
C73          C76   1.432       .  A
C74          C88   1.374       .  A
C74          C77   1.434       .  A
C75          C78   1.389       .  A
C76          C82   1.382       .  A
C77          C85   1.379       .  A
C78          H91   1.078       .  S
C78          N79   1.365       .  A
N79          C80   1.356       .  A
N79         N217   1.424       .  S
C80          H81   1.077       .  S
C82          H92   1.069       .  S
C82          N83   1.339       .  A
N83          C84   1.348       .  A
N83         C578   1.443       .  S
C84          H90   1.069       .  S
C85          H87   1.077       .  S
C85          N86   1.350       .  A
N86          C88   1.352       .  A
N86         C537   1.434       .  S
C88          H89   1.075       .  S
Zn93         O97   2.090       .  S
Zn93         O98   1.943   1_554  S
Zn93        O102   2.091   1_565  S
Zn93        O109   1.967       .  S
Zn94        O885   1.975       .  S
Zn94         O99   2.032       .  S
Zn94        O101   2.180       .  S
Zn94        O105   1.987       .  S
Zn95        O885   2.109       .  S
Zn95        O100   2.121   1_565  S
Zn95        O103   1.968   1_655  S
Zn95        O106   1.966   1_655  S
Zn96         O97   1.987       .  S
Zn96        O104   2.165   1_655  S
Zn96        O107   1.977       .  S
Zn96        O108   2.023       .  S
O97       Zn1670   1.979   1_554  S
O97       Zn1671   2.108   1_554  S
O98         C110   1.258       .  A
O99         C111   1.265       .  A
O100        C900   1.285       .  A
O101        C898   1.290       .  A
O102        C112   1.280       .  A
O103        C111   1.252   1_455  A
O104        C113   1.288       .  A
O105        C902   1.270       .  A
O106        C901   1.263       .  A
O107        C114   1.266       .  A
O108        C115   1.262       .  A
O109        C115   1.253       .  A
C110       O1677   1.290       .  A
C110        C642   1.496       .  S
C111        C134   1.465       .  S
C112       O1676   1.286   1_554  A
C112        C738   1.506       .  S
C113       O1682   1.265       .  A
C113        C473   1.495       .  S
C114       O1681   1.270   1_554  A
C114        C514   1.472       .  S
C115        C138   1.461       .  S
Zn116       O120   2.049       .  S
Zn116       O121   2.027   1_565  S
Zn116       O125   2.136       .  S
Zn116       O132   1.960       .  S
Zn117       O120   2.016       .  S
Zn117       O122   1.960       .  S
Zn117       O124   1.985   1_565  S
Zn117       O128   2.092   1_655  S
Zn118       O120   1.948       .  S
Zn118       O123   1.979       .  S
Zn118       O126   2.010       .  S
Zn118       O129   2.117       .  S
Zn119       O120   1.934       .  S
Zn119       O127   2.101       .  S
Zn119       O130   1.967   1_655  S
Zn119       O131   1.988       .  S
O121        C133   1.274       .  A
O122        C134   1.262       .  A
O123        C135   1.263       .  A
O124        C133   1.270       .  A
O125        C135   1.285       .  A
O126        C134   1.260       .  A
O127        C136   1.283       .  A
O128        C137   1.278       .  A
O129        C136   1.284       .  A
O130        C137   1.261       .  A
O131        C138   1.261       .  A
O132        C138   1.257       .  A
C133        C665   1.484       .  S
C135        C569   1.507       .  S
C136        C441   1.497       .  S
C137        C409   1.495       .  S
C139        C141   1.560       .  S
C139        C143   1.563   1_455  S
C139        C142   1.563       .  S
C139        C162   1.715       .  S
C140        C144   1.565       .  S
C140        C146   1.549   1_455  S
C140        C145   1.550       .  S
C140        C163   1.705       .  S
C141        C149   1.382       .  A
C141        C932   1.443       .  A
C142        C153   1.380       .  A
C142        C933   1.428       .  A
C143        C157   1.379       .  A
C143        C934   1.438       .  A
C144        C147   1.384       .  A
C144       C1717   1.442   1_554  A
C145        C151   1.377       .  A
C145       C1718   1.427   1_554  A
C146        C154   1.369       .  A
C146       C1719   1.440   1_554  A
C147        H160   1.079   1_455  S
C147        N148   1.361   1_454  A
N148       C1725   1.356   1_655  A
C149        H150   1.078   1_455  S
C149        N936   1.355   1_455  A
C151        H161   1.080       .  S
C151       N1728   1.351   1_554  A
N152        C153   1.357       .  A
N152        C939   1.351       .  A
N152        C377   1.441       .  S
C153        H159   1.071       .  S
C154        H156   1.080       .  S
C154        N155   1.348       .  A
N155       C1733   1.359   1_554  A
N155        C505   1.436       .  S
C157        H158   1.080       .  S
C157        N943   1.359       .  A
C162        C164   1.562   1_455  S
C162        C166   1.561       .  S
C162        C165   1.566       .  S
C163        C167   1.550   1_455  S
C163        C169   1.564       .  S
C163        C168   1.562       .  S
C164        C172   1.381       .  A
C164        C167   1.425       .  A
C165        C176   1.380       .  A
C165        C168   1.429       .  A
C166        C180   1.377       .  A
C166        C169   1.441       .  A
C167        C170   1.373       .  A
C168        C174   1.385       .  A
C169        C177   1.385       .  A
C170        H183   1.079       .  S
C170        N171   1.359       .  A
N171        C172   1.366       .  A
C172        H173   1.080       .  S
C174        H184   1.081       .  S
C174        N175   1.360       .  A
N175        C176   1.361       .  A
N175        C450   1.451       .  S
C176        H182   1.073       .  S
C177        H179   1.080       .  S
C177        N178   1.354       .  A
N178        C180   1.352       .  A
N178        C345   1.439       .  S
C180        H181   1.078       .  S
C185        C187   1.571   1_545  S
C185        C189   1.556       .  S
C185        C188   1.557       .  S
C185        C209   1.716       .  S
C186        C190   1.559   1_545  S
C186        C192   1.550       .  S
C186        C191   1.576       .  S
C186        C208   1.707       .  S
C187        C195   1.388       .  A
C187       C1766   1.437   1_554  A
C188        C199   1.372       .  A
C188       C1767   1.432   1_554  A
C189        C203   1.374       .  A
C189       C1768   1.435   1_554  A
C190        C193   1.379       .  A
C190        C975   1.439       .  A
C191        C197   1.400       .  A
C191        C976   1.433       .  A
C192        C200   1.375       .  A
C192        C977   1.433       .  A
C193        H206   1.078       .  S
C193        N982   1.357       .  A
N194        C195   1.363       .  A
N194       C1769   1.356   1_554  A
C195        H196   1.079       .  S
C197        H207   1.079       .  S
C197        N986   1.361       .  A
N198        C199   1.351       .  A
N198       C1773   1.359   1_554  A
N198        C482   1.450       .  S
C199        H205   1.068       .  S
C200        H202   1.079       .  S
C200        N989   1.349       .  A
N201        C203   1.354       .  A
N201       C1776   1.351   1_554  A
N201       C1889   1.435       .  S
C203        H204   1.076       .  S
C208        C210   1.571       .  S
C208        C212   1.574       .  S
C208        C211   1.544   1_545  S
C209        C213   1.558       .  S
C209        C215   1.571       .  S
C209        C214   1.571   1_545  S
C210        C218   1.387   1_545  A
C210        C213   1.430       .  A
C211        C222   1.371       .  A
C211        C214   1.431       .  A
C212        C226   1.394       .  A
C212        C215   1.431       .  A
C213        C216   1.379   1_545  A
C214        C220   1.386       .  A
C215        C223   1.388       .  A
C216        H229   1.079       .  S
C216        N217   1.360       .  A
N217        C218   1.368       .  A
C218        H219   1.080       .  S
C220        H230   1.072       .  S
C220        N221   1.360       .  A
N221        C222   1.347       .  A
N221        C418   1.441       .  S
C222        H228   1.079       .  S
C223        H225   1.076       .  S
C223        N224   1.362       .  A
N224        C226   1.362       .  A
N224        C290   1.459       .  S
C226        H227   1.081       .  S
Zn231       O235   2.046       .  S
Zn231       O236   2.143       .  S
Zn231       O240   2.025       .  S
Zn231       O247   1.982       .  S
Zn232      O1811   2.034       .  S
Zn232       O237   2.009       .  S
Zn232       O239   1.945       .  S
Zn232       O243   1.938   1_556  S
Zn233       O235   1.949       .  S
Zn233       O238   2.057       .  S
Zn233       O241   2.184       .  S
Zn233       O244   1.970       .  S
Zn234      O1811   1.958   1_554  S
Zn234       O242   2.132       .  S
Zn234       O245   2.002       .  S
Zn234       O246   2.022       .  S
O235      Zn1020   2.045       .  S
O235      Zn1022   1.956       .  S
O236        C248   1.283       .  A
O237       C1825   1.268       .  A
O238        C250   1.263       .  A
O239       C1824   1.258       .  A
O240        C250   1.267       .  A
O241        C249   1.291       .  A
O242       C1827   1.283       .  A
O243        C252   1.255       .  A
O244        C251   1.266       .  A
O245        C252   1.269       .  A
O246       C1829   1.268       .  A
O247        C253   1.265       .  A
C248       O1027   1.258       .  A
C248        C770   1.489       .  S
C249       O1025   1.269       .  A
C249        C601   1.503       .  S
C250        C272   1.456       .  S
C251       O1030   1.283       .  A
C251        C386   1.505       .  S
C252        C276   1.458       .  S
C253       O1034   1.267       .  A
C253        C322   1.471       .  S
Zn254       O258   2.051       .  S
Zn254       O259   2.141       .  S
Zn254       O263   2.006       .  S
Zn254       O270   2.009       .  S
Zn255       O258   2.087       .  S
Zn255       O260   1.957       .  S
Zn255       O262   1.977       .  S
Zn255       O266   2.078       .  S
Zn256       O258   1.907       .  S
Zn256       O261   1.974       .  S
Zn256       O264   2.007       .  S
Zn256       O267   2.089       .  S
Zn257       O258   1.977       .  S
Zn257       O265   1.971       .  S
Zn257       O268   2.161       .  S
Zn257       O269   2.027       .  S
O259        C271   1.288       .  A
O260        C272   1.249       .  A
O261        C273   1.259       .  A
O262        C271   1.270       .  A
O263        C273   1.270       .  A
O264        C272   1.270       .  A
O265        C274   1.266       .  A
O266        C275   1.281       .  A
O267        C274   1.276       .  A
O268        C275   1.290       .  A
O269        C276   1.262       .  A
O270        C276   1.261       .  A
C271        C706   1.492       .  S
C273        C546   1.485       .  S
C274        C354   1.470       .  S
C275        C281   1.528       .  S
C277        C278   1.412       .  A
C277        C282   1.423       .  A
C277        H287   1.082       .  S
C278        C279   1.420       .  A
C278        C283   1.526       .  S
C279        C284   1.509       .  S
C279        C280   1.412       .  A
C280        C281   1.414       .  A
C280        H285   1.084       .  S
C281        C282   1.425       .  A
C282        C286   1.506       .  S
C283        C288   1.424       .  A
C283        C292   1.408       .  A
C284        H300   1.110       .  S
C284        H301   1.107       .  S
C284        H302   1.110       .  S
C286        H297   1.111       .  S
C286        H298   1.103       .  S
C286        H299   1.110       .  S
C288        C293   1.505       .  S
C288        C289   1.422       .  A
C289        C290   1.407       .  A
C289        H294   1.083       .  S
C290        C291   1.416       .  A
C291        C295   1.504       .  S
C291        C292   1.410       .  A
C292        H296   1.079       .  S
C293        H303   1.111       .  S
C293        H304   1.107       .  S
C293        H305   1.108       .  S
C295        H306   1.110       .  S
C295        H307   1.107       .  S
C295        H308   1.111       .  S
C309        C314   1.402       .  A
C309       C1098   1.408       .  A
C309        H319   1.084       .  S
C310        C311   1.413       .  A
C310       C1885   1.408   1_554  A
C310        C315   1.485       .  S
C311        C316   1.508       .  S
C311        C312   1.398       .  A
C312       C1889   1.402       .  A
C312        H317   1.081       .  S
C313        C314   1.406       .  A
C313       C1100   1.402       .  A
C313        N989   1.432       .  S
C314        C318   1.504       .  S
C315        C320   1.417       .  A
C315       C1900   1.405   1_554  A
C316        H332   1.108       .  S
C316        H333   1.107       .  S
C316        H334   1.111       .  S
C318        H329   1.110       .  S
C318        H330   1.110       .  S
C318        H331   1.109       .  S
C320        C325   1.508       .  S
C320        C321   1.399       .  A
C321       C1898   1.401       .  A
C321        H326   1.085       .  S
C322        C323   1.413       .  A
C322       C1109   1.400       .  A
C323        C327   1.508       .  S
C323        C324   1.403       .  A
C324       C1103   1.405       .  A
C324        H328   1.082       .  S
C325        H335   1.109       .  S
C325        H336   1.110       .  S
C325        H337   1.107       .  S
C327        H338   1.109       .  S
C327        H339   1.111       .  S
C327        H340   1.109       .  S
C341        C342   1.405       .  A
C341        C346   1.400       .  A
C341        H351   1.084       .  S
C342        C343   1.427       .  A
C342        C347   1.503       .  S
C343        C348   1.506       .  S
C343        C344   1.407       .  A
C344        C345   1.396       .  A
C344        H349   1.084       .  S
C345        C346   1.414       .  A
C346        C350   1.506       .  S
C347        C352   1.424       .  A
C347        C356   1.408       .  A
C348        H364   1.110       .  S
C348        H365   1.100       .  S
C348        H366   1.111       .  S
C350        H361   1.109       .  S
C350        H362   1.110       .  S
C350        H363   1.107       .  S
C352        C357   1.507       .  S
C352        C353   1.403       .  A
C353        C354   1.399       .  A
C353        H358   1.085       .  S
C354        C355   1.411       .  A
C355        C359   1.506       .  S
C355        C356   1.403       .  A
C356        H360   1.082       .  S
C357        H367   1.110       .  S
C357        H368   1.110       .  S
C357        H369   1.104       .  S
C359        H370   1.109       .  S
C359        H371   1.108       .  S
C359        H372   1.110       .  S
C373        C378   1.406       .  A
C373       C1950   1.410       .  A
C373        H383   1.083       .  S
C374        C375   1.418       .  A
C374       C1161   1.410       .  A
C374        C379   1.500       .  S
C375        C380   1.506       .  S
C375        C376   1.405       .  A
C376        C377   1.403       .  A
C376        H381   1.083       .  S
C377       C1166   1.409       .  A
C378        C382   1.505       .  S
C378       C1953   1.409   1_554  A
C379        C384   1.411       .  A
C379       C1176   1.410       .  A
C380        H396   1.110       .  S
C380        H397   1.104       .  S
C380        H398   1.109       .  S
C382        H393   1.110       .  S
C382        H394   1.110       .  S
C382        H395   1.109       .  S
C384        C389   1.510       .  S
C384        C385   1.402       .  A
C385        C386   1.414       .  A
C385        H390   1.083       .  S
C386       C1175   1.417       .  A
C387        C391   1.504       .  S
C387        C388   1.415       .  A
C387       C1962   1.416       .  A
C388       C1955   1.410       .  A
C388        H392   1.083       .  S
C389        H399   1.111       .  S
C389        H400   1.108       .  S
C389        H401   1.109       .  S
C391        H402   1.105       .  S
C391        H403   1.108       .  S
C391        H404   1.110       .  S
C405        C406   1.399       .  A
C405        C410   1.400       .  A
C405        H415   1.084       .  S
C406        C407   1.420       .  A
C406        C411   1.497       .  S
C407        C412   1.503   1_565  S
C407        C408   1.406       .  A
C408        C409   1.403       .  A
C408        H413   1.084   1_565  S
C409        C410   1.427       .  A
C410        C414   1.511       .  S
C411        C416   1.422       .  A
C411        C420   1.402       .  A
C412        H428   1.110       .  S
C412        H429   1.106       .  S
C412        H430   1.109       .  S
C414        H425   1.111       .  S
C414        H426   1.107       .  S
C414        H427   1.111       .  S
C416        C421   1.507       .  S
C416        C417   1.408       .  A
C417        C418   1.401       .  A
C417        H422   1.084       .  S
C418        C419   1.417       .  A
C419        C423   1.504   1_565  S
C419        C420   1.398       .  A
C420        H424   1.082   1_565  S
C421        H431   1.111       .  S
C421        H432   1.110       .  S
C421        H433   1.107       .  S
C423        H434   1.110       .  S
C423        H435   1.105       .  S
C423        H436   1.111       .  S
C437        C438   1.410       .  A
C437        C442   1.412       .  A
C437        H447   1.083       .  S
C438        C439   1.423   1_655  A
C438        C443   1.517   1_655  S
C439        C444   1.508       .  S
C439        C440   1.415       .  A
C440        C441   1.405   1_455  A
C440        H445   1.084       .  S
C441        C442   1.416       .  A
C442        C446   1.507       .  S
C443        C448   1.422   1_455  A
C443        C452   1.411       .  A
C444        H460   1.107       .  S
C444        H461   1.107       .  S
C444        H462   1.111       .  S
C446        H457   1.110       .  S
C446        H458   1.108       .  S
C446        H459   1.107       .  S
C448        C453   1.505       .  S
C448        C449   1.411       .  A
C449        C450   1.404   1_655  A
C449        H454   1.084       .  S
C450        C451   1.412       .  A
C451        C455   1.505       .  S
C451        C452   1.414       .  A
C452        H456   1.082       .  S
C453        H463   1.111       .  S
C453        H464   1.107       .  S
C453        H465   1.107       .  S
C455        H466   1.109       .  S
C455        H467   1.111       .  S
C455        H468   1.111       .  S
C469        C474   1.413       .  A
C469       C1258   1.412       .  A
C469        H479   1.082       .  S
C470        C471   1.421       .  A
C470       C2045   1.411       .  A
C470        C475   1.515       .  S
C471        C476   1.508   1_565  S
C471        C472   1.410       .  A
C472        C473   1.406       .  A
C472        H477   1.084   1_565  S
C473       C2050   1.413       .  A
C474        C478   1.506       .  S
C474       C1261   1.413       .  A
C475        C480   1.419       .  A
C475       C2060   1.413   1_565  A
C476        H492   1.110       .  S
C476        H493   1.106       .  S
C476        H494   1.106       .  S
C478        H489   1.111       .  S
C478        H490   1.111       .  S
C478        H491   1.110       .  S
C480        C485   1.509       .  S
C480        C481   1.409       .  A
C481        C482   1.406   1_565  A
C481        H486   1.080       .  S
C482       C2059   1.408       .  A
C483        C487   1.504       .  S
C483        C484   1.413       .  A
C483       C1270   1.410       .  A
C484       C1263   1.413   1_545  A
C484        H488   1.082       .  S
C485        H495   1.111       .  S
C485        H496   1.106       .  S
C485        H497   1.109       .  S
C487        H498   1.110       .  S
C487        H499   1.109       .  S
C487        H500   1.110       .  S
C501        C506   1.403       .  A
C501       C2078   1.403       .  A
C501        H511   1.084       .  S
C502        C503   1.411       .  A
C502       C1289   1.406       .  A
C502        C507   1.477       .  S
C503        C508   1.509   1_655  S
C503        C504   1.391       .  A
C504       C1293   1.400       .  A
C504        H509   1.076   1_655  S
C505        C506   1.414       .  A
C505       C2080   1.401   1_554  A
C506        C510   1.505       .  S
C507        C512   1.415       .  A
C507       C1304   1.402       .  A
C508        H524   1.108       .  S
C508        H525   1.106       .  S
C508        H526   1.111       .  S
C510        H521   1.110       .  S
C510        H522   1.111       .  S
C510        H523   1.108       .  S
C512        C517   1.510       .  S
C512        C513   1.395       .  A
C513       C1302   1.403       .  A
C513        H518   1.085       .  S
C514        C515   1.416       .  A
C514       C2089   1.404   1_554  A
C515        C519   1.509   1_655  S
C515        C516   1.398       .  A
C516       C2083   1.400       .  A
C516        H520   1.080   1_655  S
C517        H527   1.110       .  S
C517        H528   1.110       .  S
C517        H529   1.105       .  S
C519        H530   1.111       .  S
C519        H531   1.108       .  S
C519        H532   1.110       .  S
C533        C534   1.398       .  A
C533        C538   1.391       .  A
C533        H543   1.085       .  S
C534        C535   1.422       .  A
C534        C539   1.487       .  S
C535        C540   1.508       .  S
C535        C536   1.408       .  A
C536        C537   1.398       .  A
C536        H541   1.083       .  S
C537        C538   1.416       .  A
C538        C542   1.505       .  S
C539        C544   1.418       .  A
C539        C548   1.399       .  A
C540        H556   1.106       .  S
C540        H557   1.107       .  S
C540        H558   1.111       .  S
C542        H553   1.110       .  S
C542        H554   1.110       .  S
C542        H555   1.103       .  S
C544        C549   1.506       .  S
C544        C545   1.397       .  A
C545        C546   1.401       .  A
C545        H550   1.084       .  S
C546        C547   1.424       .  A
C547        C551   1.510       .  S
C547        C548   1.402       .  A
C548        H552   1.082       .  S
C549        H559   1.107       .  S
C549        H560   1.110       .  S
C549        H561   1.107       .  S
C551        H562   1.111       .  S
C551        H563   1.105       .  S
C551        H564   1.110       .  S
C565        C566   1.401       .  A
C565        C570   1.406       .  A
C565        H575   1.083       .  S
C566        C567   1.421       .  A
C566        C571   1.508       .  S
C567        C572   1.502       .  S
C567        C568   1.410       .  A
C568        C569   1.404       .  A
C568        H573   1.084       .  S
C569        C570   1.429       .  A
C570        C574   1.510       .  S
C571        C576   1.424       .  A
C571        C580   1.408       .  A
C572        H588   1.110       .  S
C572        H589   1.108       .  S
C572        H590   1.107       .  S
C574        H585   1.110       .  S
C574        H586   1.111       .  S
C574        H587   1.102       .  S
C576        C581   1.508       .  S
C576        C577   1.409       .  A
C577        C578   1.401       .  A
C577        H582   1.084       .  S
C578        C579   1.417       .  A
C579        C583   1.505       .  S
C579        C580   1.405       .  A
C580        H584   1.084       .  S
C581        H591   1.111       .  S
C581        H592   1.110       .  S
C581        H593   1.105       .  S
C583        H594   1.109       .  S
C583        H595   1.103       .  S
C583        H596   1.111       .  S
C597        C602   1.412       .  A
C597       C1386   1.407       .  A
C597        H607   1.084       .  S
C598        C599   1.427   1_556  A
C598       C2173   1.407       .  A
C598        C603   1.521       .  S
C599        C604   1.506       .  S
C599        C600   1.415   1_554  A
C600       C2177   1.403       .  A
C600        H605   1.085   1_556  S
C601        C602   1.422       .  A
C601       C1388   1.403       .  A
C602        C606   1.508       .  S
C603        C608   1.430       .  A
C603       C2188   1.408       .  A
C604        H620   1.110       .  S
C604        H621   1.106       .  S
C604        H622   1.110       .  S
C606        H617   1.110       .  S
C606        H618   1.110       .  S
C606        H619   1.107       .  S
C608        C613   1.508   1_556  S
C608        C609   1.416   1_556  A
C609       C2186   1.401   1_554  A
C609        H614   1.084       .  S
C610        C611   1.417       .  A
C610       C1397   1.401       .  A
C610        N848   1.453       .  S
C611        C615   1.504       .  S
C611        C612   1.410       .  A
C612       C1391   1.408       .  A
C612        H616   1.084       .  S
C613        H623   1.111       .  S
C613        H624   1.110   1_554  S
C613        H625   1.105       .  S
C615        H626   1.110       .  S
C615        H627   1.107       .  S
C615        H628   1.111       .  S
C629        C634   1.409       .  A
C629       C1418   1.410       .  A
C629        H639   1.084       .  S
C630        C631   1.430       .  A
C630       C2205   1.411       .  A
C630        C635   1.519       .  S
C631        C636   1.509       .  S
C631        C632   1.410       .  A
C632        C633   1.398       .  A
C632        H637   1.084       .  S
C633       C2210   1.418       .  A
C634        C638   1.505       .  S
C634       C1421   1.417       .  A
C635        C640   1.427       .  A
C635       C2220   1.406       .  A
C636        H652   1.110       .  S
C636        H653   1.103       .  S
C636        H654   1.111   1_556  S
C638        H649   1.111       .  S
C638        H650   1.110       .  S
C638        H651   1.105       .  S
C640        C645   1.508   1_556  S
C640        C641   1.415       .  A
C641        C642   1.405       .  A
C641        H646   1.085       .  S
C642       C2219   1.422       .  A
C643        C647   1.509       .  S
C643        C644   1.407       .  A
C643       C1430   1.422       .  A
C644       C1423   1.406       .  A
C644        H648   1.084       .  S
C645        H655   1.111       .  S
C645        H656   1.110       .  S
C645        H657   1.107       .  S
C647        H658   1.108       .  S
C647        H659   1.107       .  S
C647        H660   1.110       .  S
C661        C662   1.406       .  A
C661        C666   1.405       .  A
C661        H671   1.082       .  S
C662        C663   1.414       .  A
C662        C667   1.487       .  S
C663        C668   1.508       .  S
C663        C664   1.398       .  A
C664        C665   1.406       .  A
C664        H669   1.085       .  S
C665        C666   1.414       .  A
C666        C670   1.506       .  S
C667        C672   1.412       .  A
C667        C676   1.410       .  A
C668        H684   1.110   1_655  S
C668        H685   1.107       .  S
C668        H686   1.110       .  S
C670        H681   1.110       .  S
C670        H682   1.107       .  S
C670        H683   1.110       .  S
C672        C677   1.509       .  S
C672        C673   1.397       .  A
C673        C674   1.402       .  A
C673        H678   1.080       .  S
C674        C675   1.406       .  A
C675        C679   1.503       .  S
C675        C676   1.404       .  A
C676        H680   1.084       .  S
C677        H687   1.111       .  S
C677        H688   1.107       .  S
C677        H689   1.109       .  S
C679        H690   1.110       .  S
C679        H691   1.109       .  S
C679        H692   1.110   1_655  S
C693        C694   1.407       .  A
C693        C698   1.404       .  A
C693        H703   1.082       .  S
C694        C695   1.428       .  A
C694        C699   1.507       .  S
C695        C700   1.510       .  S
C695        C696   1.406       .  A
C696        C697   1.396       .  A
C696        H701   1.084       .  S
C697        C698   1.417       .  A
C698        C702   1.506       .  S
C699        C704   1.425       .  A
C699        C708   1.404       .  A
C700        H716   1.110       .  S
C700        H717   1.102       .  S
C700        H718   1.111       .  S
C702        H713   1.111       .  S
C702        H714   1.110       .  S
C702        H715   1.105       .  S
C704        C709   1.507       .  S
C704        C705   1.408       .  A
C705        C706   1.399       .  A
C705        H710   1.084       .  S
C706        C707   1.419       .  A
C707        C711   1.505       .  S
C707        C708   1.406       .  A
C708        H712   1.083       .  S
C709        H719   1.110       .  S
C709        H720   1.106       .  S
C709        H721   1.109       .  S
C711        H722   1.111       .  S
C711        H723   1.102       .  S
C711        H724   1.110       .  S
C725        C730   1.406       .  A
C725       C2302   1.406   1_554  A
C725        H735   1.081       .  S
C726        C727   1.425       .  A
C726       C1513   1.406       .  A
C726        C731   1.510       .  S
C727        C732   1.505       .  S
C727        C728   1.411       .  A
C728       C1517   1.400       .  A
C728        H733   1.084       .  S
C729        C730   1.415   1_556  A
C729       C2304   1.400       .  A
C730        C734   1.505       .  S
C731        C736   1.423       .  A
C731       C1528   1.406       .  A
C732        H748   1.110       .  S
C732        H749   1.102       .  S
C732        H750   1.111       .  S
C734        H745   1.111   1_554  S
C734        H746   1.110       .  S
C734        H747   1.106       .  S
C736        C741   1.506       .  S
C736        C737   1.410       .  A
C737       C1526   1.406       .  A
C737        H742   1.084       .  S
C738        C739   1.422       .  A
C738       C2313   1.407   1_554  A
C739        C743   1.507       .  S
C739        C740   1.410       .  A
C740       C2307   1.405   1_554  A
C740        H744   1.084       .  S
C741        H751   1.109       .  S
C741        H752   1.110       .  S
C741        H753   1.106       .  S
C743        H754   1.107       .  S
C743        H755   1.109       .  S
C743        H756   1.111       .  S
C757        C762   1.403       .  A
C757       C2334   1.406   1_554  A
C757        H767   1.084       .  S
C758        C759   1.425       .  A
C758       C1545   1.406       .  A
C758        C763   1.500       .  S
C759        C764   1.509       .  S
C759        C760   1.403       .  A
C760        C761   1.396       .  A
C760        H765   1.084       .  S
C761       C1550   1.417       .  A
C762        C766   1.506       .  S
C762       C2337   1.417       .  A
C763        C768   1.424       .  A
C763       C1560   1.397       .  A
C764        H780   1.110       .  S
C764        H781   1.101       .  S
C764        H782   1.111       .  S
C766        H777   1.111   1_554  S
C766        H778   1.108       .  S
C766        H779   1.103       .  S
C768        C773   1.502       .  S
C768        C769   1.411       .  A
C769        C770   1.399       .  A
C769        H774   1.084       .  S
C770       C1559   1.424       .  A
C771        C775   1.510       .  S
C771        C772   1.402       .  A
C771       C2346   1.424   1_554  A
C772       C2339   1.401   1_554  A
C772        H776   1.084       .  S
C773        H783   1.105       .  S
C773        H784   1.110       .  S
C773        H785   1.107       .  S
C775        H786   1.111       .  S
C775        H787   1.105       .  S
C775        H788   1.110   1_554  S
C789        C791   1.540       .  S
C789        C793   1.569       .  S
C789        C792   1.575       .  S
C789        C812   1.704       .  S
C790        C794   1.574       .  S
C790        C796   1.556       .  S
C790        C795   1.552       .  S
C790        C813   1.725       .  S
C791        C799   1.372       .  A
C792        C803   1.383       .  A
C793        C807   1.383       .  A
C794       C1579   1.426       .  A
C794        C797   1.385       .  A
C795       C1580   1.431       .  A
C795        C801   1.378       .  A
C796       C1581   1.442       .  A
C796        C804   1.383       .  A
C797        H810   1.080       .  S
C797       N1586   1.368       .  A
N798        C799   1.358       .  A
N798        N936   1.421       .  S
C799        H800   1.080       .  S
C801        H811   1.082       .  S
C801       N1590   1.354       .  A
N802        C803   1.361       .  A
N802       C1517   1.445       .  S
C803        H809   1.074       .  S
C804        H806   1.070       .  S
C804        N805   1.336       .  A
N805       C1595   1.342       .  A
N805       C1549   1.436       .  S
C807        H808   1.069       .  S
C812        C814   1.574       .  S
C812        C816   1.543       .  S
C812        C815   1.561       .  S
C813        C817   1.549       .  S
C813        C819   1.567       .  S
C813        C818   1.574       .  S
C814        C822   1.381       .  A
C814        C817   1.437       .  A
C815        C826   1.377       .  A
C815        C818   1.437       .  A
C816        C830   1.371       .  A
C816        C819   1.432       .  A
C817        C820   1.375       .  A
C818        C824   1.401       .  A
C819        C827   1.381       .  A
C820        H833   1.078       .  S
C820        N821   1.356       .  A
N821        C822   1.363       .  A
N821        N959   1.418       .  S
C822        H823   1.078       .  S
C824        H834   1.072       .  S
C824        N825   1.344       .  A
N825        C826   1.340       .  A
N825       C1485   1.444       .  S
C826        H832   1.070       .  S
C827        H829   1.077       .  S
C827        N828   1.353       .  A
N828        C830   1.353       .  A
N828       C1462   1.434       .  S
C830        H831   1.077       .  S
C835        C837   1.548       .  S
C835        C839   1.563       .  S
C835        C838   1.570       .  S
C835        C858   1.703       .  S
C836        C840   1.565       .  S
C836        C842   1.579       .  S
C836        C841   1.568       .  S
C836        C859   1.726       .  S
C837        C845   1.379       .  A
C837       C1628   1.421       .  A
C838        C849   1.376       .  A
C838       C1629   1.430       .  A
C839        C853   1.379       .  A
C839       C1630   1.437       .  A
C840        C843   1.383       .  A
C841        C847   1.394       .  A
C842        C850   1.404       .  A
C843        H856   1.079       .  S
C843        N844   1.361       .  A
N844        N982   1.422       .  S
C845        H846   1.080       .  S
C845       N1632   1.363       .  A
C847        H857   1.080       .  S
C847        N848   1.363       .  A
C849        H855   1.066       .  S
C849       N1636   1.356       .  A
C850        H852   1.072       .  S
C850        N851   1.346       .  A
N851       C1421   1.448       .  S
C853        H854   1.070       .  S
C853       N1639   1.343       .  A
C858        C860   1.566       .  S
C858        C862   1.551       .  S
C858        C861   1.568       .  S
C859        C863   1.571       .  S
C859        C865   1.561       .  S
C859        C864   1.553       .  S
C860        C868   1.381       .  A
C860        C863   1.440       .  A
C861        C872   1.387       .  A
C861        C864   1.432       .  A
C862        C876   1.375       .  A
C862        C865   1.433       .  A
C863        C866   1.389       .  A
C864        C870   1.380       .  A
C865        C873   1.379       .  A
C866        H879   1.078       .  S
C866        N867   1.364       .  A
N867        C868   1.356       .  A
N867       N1005   1.424       .  S
C868        H869   1.077       .  S
C870        H880   1.069       .  S
C870        N871   1.338       .  A
N871        C872   1.348       .  A
N871       C1366   1.443       .  S
C872        H878   1.069       .  S
C873        H875   1.077       .  S
C873        N874   1.352       .  A
N874        C876   1.353       .  A
N874       C1325   1.435       .  S
C876        H877   1.077       .  S
Zn881       O885   2.087       .  S
Zn881       O886   1.932       .  S
Zn881       O890   2.089   1_565  S
Zn881       O897   1.971       .  S
Zn882      O1673   1.970       .  S
Zn882       O887   2.034       .  S
Zn882       O889   2.177       .  S
Zn882       O893   1.991       .  S
Zn883      O1673   2.107       .  S
Zn883       O888   2.106   1_565  S
Zn883       O891   1.964       .  S
Zn883       O894   1.974   1_655  S
Zn884       O885   1.987       .  S
Zn884       O892   2.174   1_655  S
Zn884       O895   1.992       .  S
Zn884       O896   2.031       .  S
O886        C898   1.257       .  A
O887        C899   1.266       .  A
O888       C1688   1.283       .  A
O889       C1686   1.289       .  A
O890        C900   1.279       .  A
O891        C899   1.252       .  A
O892        C901   1.290       .  A
O893       C1690   1.270       .  A
O894       C1689   1.264       .  A
O895        C902   1.267       .  A
O896        C903   1.263       .  A
O897        C903   1.254       .  A
C898       C1430   1.491       .  S
C899        C922   1.466       .  S
C900       C1526   1.503       .  S
C901       C1261   1.493       .  S
C902       C1302   1.474       .  S
C903        C926   1.460       .  S
Zn904       O908   2.051       .  S
Zn904       O909   2.033   1_565  S
Zn904       O913   2.132       .  S
Zn904       O920   1.952       .  S
Zn905       O908   2.018       .  S
Zn905       O910   1.964   1_565  S
Zn905       O912   1.982   1_565  S
Zn905       O916   2.093   1_655  S
Zn906       O908   1.939       .  S
Zn906       O911   1.984       .  S
Zn906       O914   2.017       .  S
Zn906       O917   2.123       .  S
Zn907       O908   1.936       .  S
Zn907       O915   2.095       .  S
Zn907       O918   1.973   1_655  S
Zn907       O919   1.983       .  S
O909        C921   1.276       .  A
O910        C922   1.263   1_545  A
O911        C923   1.263       .  A
O912        C921   1.269       .  A
O913        C923   1.285       .  A
O914        C922   1.262       .  A
O915        C924   1.281       .  A
O916        C925   1.278       .  A
O917        C924   1.285       .  A
O918        C925   1.261       .  A
O919        C926   1.260       .  A
O920        C926   1.256       .  A
C921       C1453   1.485       .  S
C923       C1357   1.508       .  S
C924       C1229   1.496       .  S
C925       C1197   1.498       .  S
C927        C929   1.558       .  S
C927        C931   1.563   1_455  S
C927        C930   1.562       .  S
C927        C950   1.715       .  S
C928        C932   1.567       .  S
C928        C934   1.548   1_455  S
C928        C933   1.549       .  S
C928        C951   1.704       .  S
C929        C937   1.381       .  A
C929       C1720   1.441       .  A
C930        C941   1.378       .  A
C930       C1721   1.428       .  A
C931        C945   1.379       .  A
C931       C1722   1.439       .  A
C932        C935   1.384       .  A
C933        C939   1.378       .  A
C934        C942   1.369       .  A
C935        H948   1.079   1_455  S
C935        N936   1.361   1_455  A
C937        H938   1.078   1_455  S
C937       N1724   1.355   1_455  A
C939        H949   1.080       .  S
N940       C1727   1.351       .  A
N940        C941   1.357       .  A
N940       C1165   1.443       .  S
C941        H947   1.068       .  S
C942        H944   1.080       .  S
C942        N943   1.348       .  A
N943       C1293   1.434       .  S
C945        H946   1.081       .  S
C945       N1731   1.359       .  A
C950        C952   1.562   1_455  S
C950        C954   1.560       .  S
C950        C953   1.567       .  S
C951        C955   1.550   1_455  S
C951        C957   1.562       .  S
C951        C956   1.566       .  S
C952        C960   1.381       .  A
C952        C955   1.426       .  A
C953        C964   1.380       .  A
C953        C956   1.431       .  A
C954        C968   1.377       .  A
C954        C957   1.437       .  A
C955        C958   1.373       .  A
C956        C962   1.388       .  A
C957        C965   1.385       .  A
C958        H971   1.079       .  S
C958        N959   1.359       .  A
N959        C960   1.366       .  A
C960        H961   1.080       .  S
C962        H972   1.082       .  S
C962        N963   1.361       .  A
N963        C964   1.361       .  A
N963       C1238   1.453       .  S
C964        H970   1.073       .  S
C965        H967   1.080       .  S
C965        N966   1.355       .  A
N966        C968   1.353       .  A
N966       C1133   1.439       .  S
C968        H969   1.079       .  S
C973        C975   1.571   1_545  S
C973        C977   1.554       .  S
C973        C976   1.555       .  S
C973        C997   1.715       .  S
C974        C978   1.557   1_545  S
C974        C980   1.550       .  S
C974        C979   1.569       .  S
C974        C996   1.701       .  S
C975        C983   1.388       .  A
C976        C987   1.373       .  A
C977        C991   1.373       .  A
C978       C1763   1.438       .  A
C978        C981   1.378       .  A
C979       C1764   1.432       .  A
C979        C985   1.396       .  A
C980       C1765   1.434       .  A
C980        C988   1.376       .  A
C981        H994   1.078       .  S
C981       N1770   1.356       .  A
N982        C983   1.363       .  A
C983        H984   1.079       .  S
C985        H995   1.079       .  S
C985       N1774   1.358       .  A
N986        C987   1.350       .  A
N986       C1270   1.451       .  S
C987        H993   1.070       .  S
C988        H990   1.079       .  S
C988       N1777   1.349       .  A
N989        C991   1.354       .  A
C991        H992   1.075       .  S
C996        C998   1.567       .  S
C996       C1000   1.570       .  S
C996        C999   1.547   1_545  S
C997       C1001   1.559       .  S
C997       C1003   1.572       .  S
C997       C1002   1.573   1_545  S
C998       C1006   1.385   1_545  A
C998       C1001   1.428       .  A
C999       C1010   1.374       .  A
C999       C1002   1.432       .  A
C1000      C1014   1.393       .  A
C1000      C1003   1.429       .  A
C1001      C1004   1.380   1_545  A
C1002      C1008   1.388       .  A
C1003      C1011   1.387       .  A
C1004      H1017   1.079       .  S
C1004      N1005   1.360       .  A
N1005      C1006   1.367       .  A
C1006      H1007   1.080       .  S
C1008      H1018   1.074       .  S
C1008      N1009   1.361       .  A
N1009      C1010   1.346       .  A
N1009      C1206   1.442       .  S
C1010      H1016   1.079       .  S
C1011      H1013   1.073       .  S
C1011      N1012   1.362       .  A
N1012      C1014   1.361       .  A
N1012      C1078   1.459       .  S
C1014      H1015   1.081       .  S
Zn1019     O1023   2.043       .  S
Zn1019     O1024   2.139       .  S
Zn1019     O1028   2.021       .  S
Zn1019     O1035   1.972       .  S
Zn1020     O1025   2.014       .  S
Zn1020     O1027   1.946       .  S
Zn1020     O1031   1.932       .  S
Zn1021     O1023   1.949       .  S
Zn1021     O1026   2.059       .  S
Zn1021     O1029   2.189       .  S
Zn1021     O1032   1.966       .  S
Zn1022     O1030   2.134       .  S
Zn1022     O1033   2.004       .  S
Zn1022     O1034   2.016       .  S
O1023     Zn1808   2.046       .  S
O1023     Zn1810   1.967       .  S
O1024      C1036   1.282       .  A
O1026      C1038   1.261       .  A
O1028      C1038   1.268       .  A
O1029      C1037   1.292       .  A
O1031      C1040   1.255       .  A
O1032      C1039   1.266       .  A
O1033      C1040   1.269       .  A
O1035      C1041   1.264       .  A
C1036      O1815   1.260       .  A
C1036      C1558   1.492       .  S
C1037      O1813   1.270       .  A
C1037      C1389   1.505       .  S
C1038      C1060   1.457       .  S
C1039      O1818   1.284       .  A
C1039      C1174   1.508       .  S
C1040      C1064   1.459       .  S
C1041      O1822   1.268       .  A
C1041      C1110   1.466       .  S
Zn1042     O1046   2.051       .  S
Zn1042     O1047   2.149       .  S
Zn1042     O1051   2.013       .  S
Zn1042     O1058   2.004       .  S
Zn1043     O1046   2.093       .  S
Zn1043     O1048   1.958       .  S
Zn1043     O1050   1.969       .  S
Zn1043     O1054   2.090       .  S
Zn1044     O1046   1.918       .  S
Zn1044     O1049   1.982       .  S
Zn1044     O1052   2.009       .  S
Zn1044     O1055   2.093       .  S
Zn1045     O1046   1.975       .  S
Zn1045     O1053   1.972       .  S
Zn1045     O1056   2.161       .  S
Zn1045     O1057   2.031       .  S
O1047      C1059   1.289       .  A
O1048      C1060   1.248       .  A
O1049      C1061   1.260       .  A
O1050      C1059   1.270       .  A
O1051      C1061   1.272       .  A
O1052      C1060   1.270       .  A
O1053      C1062   1.266       .  A
O1054      C1063   1.282       .  A
O1055      C1062   1.277       .  A
O1056      C1063   1.289       .  A
O1057      C1064   1.262       .  A
O1058      C1064   1.260       .  A
C1059      C1494   1.494       .  S
C1061      C1334   1.489       .  S
C1062      C1142   1.470       .  S
C1063      C1069   1.530       .  S
C1065      C1066   1.413       .  A
C1065      C1070   1.423       .  A
C1065      H1075   1.083       .  S
C1066      C1067   1.421       .  A
C1066      C1071   1.528       .  S
C1067      C1072   1.509       .  S
C1067      C1068   1.414       .  A
C1068      C1069   1.414       .  A
C1068      H1073   1.084       .  S
C1069      C1070   1.426       .  A
C1070      C1074   1.506       .  S
C1071      C1076   1.427       .  A
C1071      C1080   1.410       .  A
C1072      H1088   1.109       .  S
C1072      H1089   1.107       .  S
C1072      H1090   1.110       .  S
C1074      H1085   1.111       .  S
C1074      H1086   1.103       .  S
C1074      H1087   1.110       .  S
C1076      C1081   1.506       .  S
C1076      C1077   1.421       .  A
C1077      C1078   1.406       .  A
C1077      H1082   1.084       .  S
C1078      C1079   1.416       .  A
C1079      C1083   1.505       .  S
C1079      C1080   1.411       .  A
C1080      H1084   1.079       .  S
C1081      H1091   1.111       .  S
C1081      H1092   1.110       .  S
C1081      H1093   1.106       .  S
C1083      H1094   1.110       .  S
C1083      H1095   1.107       .  S
C1083      H1096   1.111       .  S
C1097      C1886   1.408       .  A
C1097      C1102   1.403       .  A
C1097      H1107   1.084       .  S
C1098      C1099   1.412       .  A
C1098      C1103   1.482       .  S
C1099      C1104   1.509       .  S
C1099      C1100   1.396       .  A
C1100      H1105   1.079       .  S
C1101      C1888   1.401       .  A
C1101      C1102   1.403       .  A
C1101      N1777   1.431       .  S
C1102      C1106   1.503       .  S
C1103      C1108   1.416       .  A
C1104      H1120   1.108       .  S
C1104      H1121   1.107       .  S
C1104      H1122   1.111       .  S
C1106      H1117   1.111       .  S
C1106      H1118   1.110       .  S
C1106      H1119   1.110       .  S
C1108      C1113   1.508       .  S
C1108      C1109   1.396       .  A
C1109      H1114   1.085       .  S
C1110      C1897   1.400       .  A
C1110      C1111   1.412       .  A
C1111      C1115   1.507       .  S
C1111      C1112   1.401       .  A
C1112      C1891   1.405       .  A
C1112      H1116   1.085       .  S
C1113      H1123   1.109       .  S
C1113      H1124   1.110       .  S
C1113      H1125   1.107       .  S
C1115      H1126   1.110       .  S
C1115      H1127   1.111       .  S
C1115      H1128   1.110       .  S
C1129      C1130   1.403       .  A
C1129      C1134   1.396       .  A
C1129      H1139   1.083       .  S
C1130      C1131   1.426       .  A
C1130      C1135   1.500       .  S
C1131      C1136   1.505       .  S
C1131      C1132   1.410       .  A
C1132      C1133   1.399       .  A
C1132      H1137   1.084       .  S
C1133      C1134   1.413       .  A
C1134      C1138   1.504       .  S
C1135      C1140   1.423       .  A
C1135      C1144   1.408       .  A
C1136      H1152   1.110       .  S
C1136      H1153   1.101       .  S
C1136      H1154   1.111       .  S
C1138      H1149   1.109       .  S
C1138      H1150   1.109       .  S
C1138      H1151   1.107       .  S
C1140      C1145   1.506       .  S
C1140      C1141   1.400       .  A
C1141      C1142   1.396       .  A
C1141      H1146   1.085       .  S
C1142      C1143   1.413       .  A
C1143      C1147   1.506       .  S
C1143      C1144   1.406       .  A
C1144      H1148   1.083       .  S
C1145      H1155   1.110       .  S
C1145      H1156   1.110       .  S
C1145      H1157   1.104       .  S
C1147      H1158   1.110       .  S
C1147      H1159   1.108       .  S
C1147      H1160   1.110       .  S
C1161      C1166   1.407       .  A
C1161      H1171   1.083       .  S
C1162      C1949   1.411       .  A
C1162      C1163   1.419       .  A
C1162      C1167   1.504       .  S
C1163      C1168   1.507       .  S
C1163      C1164   1.406       .  A
C1164      C1165   1.404       .  A
C1164      H1169   1.083       .  S
C1165      C1954   1.409       .  A
C1166      C1170   1.505       .  S
C1167      C1172   1.412       .  A
C1167      C1964   1.412       .  A
C1168      H1184   1.110       .  S
C1168      H1185   1.105       .  S
C1168      H1186   1.109       .  S
C1170      H1181   1.110       .  S
C1170      H1182   1.110       .  S
C1170      H1183   1.109       .  S
C1172      C1177   1.510       .  S
C1172      C1173   1.402       .  A
C1173      C1174   1.414       .  A
C1173      H1178   1.083       .  S
C1174      C1963   1.417       .  A
C1175      C1179   1.504       .  S
C1175      C1176   1.415       .  A
C1176      H1180   1.083       .  S
C1177      H1187   1.111       .  S
C1177      H1188   1.107       .  S
C1177      H1189   1.108       .  S
C1179      H1190   1.106       .  S
C1179      H1191   1.108       .  S
C1179      H1192   1.110       .  S
C1193      C1194   1.401       .  A
C1193      C1198   1.402       .  A
C1193      H1203   1.084       .  S
C1194      C1195   1.421       .  A
C1194      C1199   1.501       .  S
C1195      C1200   1.502   1_565  S
C1195      C1196   1.407       .  A
C1196      C1197   1.403       .  A
C1196      H1201   1.084   1_565  S
C1197      C1198   1.427       .  A
C1198      C1202   1.511       .  S
C1199      C1204   1.423       .  A
C1199      C1208   1.403       .  A
C1200      H1216   1.110       .  S
C1200      H1217   1.105       .  S
C1200      H1218   1.110       .  S
C1202      H1213   1.111       .  S
C1202      H1214   1.106       .  S
C1202      H1215   1.111       .  S
C1204      C1209   1.507       .  S
C1204      C1205   1.409       .  A
C1205      C1206   1.401       .  A
C1205      H1210   1.084       .  S
C1206      C1207   1.416   1_565  A
C1207      C1211   1.505       .  S
C1207      C1208   1.400   1_545  A
C1208      H1212   1.083   1_565  S
C1209      H1219   1.111       .  S
C1209      H1220   1.110       .  S
C1209      H1221   1.107       .  S
C1211      H1222   1.110       .  S
C1211      H1223   1.105       .  S
C1211      H1224   1.111       .  S
C1225      C1226   1.410       .  A
C1225      C1230   1.412       .  A
C1225      H1235   1.083       .  S
C1226      C1227   1.423   1_655  A
C1226      C1231   1.516       .  S
C1227      C1232   1.507       .  S
C1227      C1228   1.414       .  A
C1228      C1229   1.405   1_455  A
C1228      H1233   1.085       .  S
C1229      C1230   1.416       .  A
C1230      C1234   1.507       .  S
C1231      C1236   1.419       .  A
C1231      C1240   1.411   1_655  A
C1232      H1248   1.110       .  S
C1232      H1249   1.106       .  S
C1232      H1250   1.111       .  S
C1234      H1245   1.110       .  S
C1234      H1246   1.107       .  S
C1234      H1247   1.108       .  S
C1236      C1241   1.504       .  S
C1236      C1237   1.411       .  A
C1237      C1238   1.404   1_655  A
C1237      H1242   1.084       .  S
C1238      C1239   1.416       .  A
C1239      C1243   1.505       .  S
C1239      C1240   1.415       .  A
C1240      H1244   1.084       .  S
C1241      H1251   1.111       .  S
C1241      H1252   1.108       .  S
C1241      H1253   1.107       .  S
C1243      H1254   1.111       .  S
C1243      H1255   1.108       .  S
C1243      H1256   1.110       .  S
C1257      C2046   1.412       .  A
C1257      C1262   1.416       .  A
C1257      H1267   1.082       .  S
C1258      C1259   1.420   1_565  A
C1258      C1263   1.513       .  S
C1259      C1264   1.508       .  S
C1259      C1260   1.410   1_545  A
C1260      C1261   1.407       .  A
C1260      H1265   1.085   1_565  S
C1262      C1266   1.506       .  S
C1262      C2049   1.414       .  A
C1263      C1268   1.419       .  A
C1264      H1280   1.110       .  S
C1264      H1281   1.106       .  S
C1264      H1282   1.106       .  S
C1266      H1277   1.111       .  S
C1266      H1278   1.111       .  S
C1266      H1279   1.110       .  S
C1268      C1273   1.508       .  S
C1268      C1269   1.408       .  A
C1269      C1270   1.406   1_565  A
C1269      H1274   1.081       .  S
C1271      C1275   1.504       .  S
C1271      C2058   1.409       .  A
C1271      C1272   1.412       .  A
C1272      C2051   1.414   1_545  A
C1272      H1276   1.081       .  S
C1273      H1283   1.108       .  S
C1273      H1284   1.110       .  S
C1273      H1285   1.107       .  S
C1275      H1286   1.110       .  S
C1275      H1287   1.109       .  S
C1275      H1288   1.110       .  S
C1289      C1294   1.403       .  A
C1289      H1299   1.085       .  S
C1290      C2077   1.406       .  A
C1290      C1291   1.412       .  A
C1290      C1295   1.478       .  S
C1291      C1296   1.511   1_655  S
C1291      C1292   1.391       .  A
C1292      C2081   1.400       .  A
C1292      H1297   1.076   1_655  S
C1293      C1294   1.412       .  A
C1294      C1298   1.504       .  S
C1295      C1300   1.414       .  A
C1295      C2092   1.401       .  A
C1296      H1312   1.108       .  S
C1296      H1313   1.107       .  S
C1296      H1314   1.111       .  S
C1298      H1309   1.110       .  S
C1298      H1310   1.110       .  S
C1298      H1311   1.108       .  S
C1300      C1305   1.510       .  S
C1300      C1301   1.396       .  A
C1301      C2090   1.404       .  A
C1301      H1306   1.085       .  S
C1302      C1303   1.415       .  A
C1303      C1307   1.508   1_655  S
C1303      C1304   1.400       .  A
C1304      H1308   1.081   1_655  S
C1305      H1315   1.111       .  S
C1305      H1316   1.110       .  S
C1305      H1317   1.105       .  S
C1307      H1318   1.111       .  S
C1307      H1319   1.109       .  S
C1307      H1320   1.111       .  S
C1321      C1322   1.398       .  A
C1321      C1326   1.390       .  A
C1321      H1331   1.085       .  S
C1322      C1323   1.420       .  A
C1322      C1327   1.488       .  S
C1323      C1328   1.507       .  S
C1323      C1324   1.410       .  A
C1324      C1325   1.400       .  A
C1324      H1329   1.083       .  S
C1325      C1326   1.416       .  A
C1326      C1330   1.505       .  S
C1327      C1332   1.417       .  A
C1327      C1336   1.400       .  A
C1328      H1344   1.107       .  S
C1328      H1345   1.109       .  S
C1328      H1346   1.111       .  S
C1330      H1341   1.110       .  S
C1330      H1342   1.109       .  S
C1330      H1343   1.103       .  S
C1332      C1337   1.504       .  S
C1332      C1333   1.396       .  A
C1333      C1334   1.401       .  A
C1333      H1338   1.084       .  S
C1334      C1335   1.425       .  A
C1335      C1339   1.509       .  S
C1335      C1336   1.405       .  A
C1336      H1340   1.082       .  S
C1337      H1347   1.106       .  S
C1337      H1348   1.110       .  S
C1337      H1349   1.108       .  S
C1339      H1350   1.111       .  S
C1339      H1351   1.105       .  S
C1339      H1352   1.110       .  S
C1353      C1354   1.401       .  A
C1353      C1358   1.407       .  A
C1353      H1363   1.084       .  S
C1354      C1355   1.420       .  A
C1354      C1359   1.507       .  S
C1355      C1360   1.502       .  S
C1355      C1356   1.409       .  A
C1356      C1357   1.404       .  A
C1356      H1361   1.084       .  S
C1357      C1358   1.430       .  A
C1358      C1362   1.510       .  S
C1359      C1364   1.423       .  A
C1359      C1368   1.407       .  A
C1360      H1376   1.110       .  S
C1360      H1377   1.108       .  S
C1360      H1378   1.107       .  S
C1362      H1373   1.110       .  S
C1362      H1374   1.111       .  S
C1362      H1375   1.103       .  S
C1364      C1369   1.508       .  S
C1364      C1365   1.409       .  A
C1365      C1366   1.401       .  A
C1365      H1370   1.084       .  S
C1366      C1367   1.416       .  A
C1367      C1371   1.505       .  S
C1367      C1368   1.404       .  A
C1368      H1372   1.084       .  S
C1369      H1379   1.111       .  S
C1369      H1380   1.110       .  S
C1369      H1381   1.104       .  S
C1371      H1382   1.108       .  S
C1371      H1383   1.103       .  S
C1371      H1384   1.111       .  S
C1385      C2174   1.407       .  A
C1385      C1390   1.412       .  A
C1385      H1395   1.084       .  S
C1386      C1387   1.427       .  A
C1386      C1391   1.521       .  S
C1387      C1392   1.507       .  S
C1387      C1388   1.414       .  A
C1388      H1393   1.084       .  S
C1389      C2176   1.405       .  A
C1389      C1390   1.422       .  A
C1390      C1394   1.508       .  S
C1391      C1396   1.430       .  A
C1392      H1408   1.110       .  S
C1392      H1409   1.106       .  S
C1392      H1410   1.110       .  S
C1394      H1405   1.110       .  S
C1394      H1406   1.110       .  S
C1394      H1407   1.107       .  S
C1396      C1401   1.509       .  S
C1396      C1397   1.416       .  A
C1397      H1402   1.084       .  S
C1398      C2185   1.400       .  A
C1398      C1399   1.417       .  A
C1398      N1636   1.454       .  S
C1399      C1403   1.505       .  S
C1399      C1400   1.412       .  A
C1400      C2179   1.410       .  A
C1400      H1404   1.084       .  S
C1401      H1411   1.110       .  S
C1401      H1412   1.110       .  S
C1401      H1413   1.105       .  S
C1403      H1414   1.110       .  S
C1403      H1415   1.108       .  S
C1403      H1416   1.111       .  S
C1417      C2206   1.410       .  A
C1417      C1422   1.409       .  A
C1417      H1427   1.084       .  S
C1418      C1419   1.429       .  A
C1418      C1423   1.516       .  S
C1419      C1424   1.509       .  S
C1419      C1420   1.409       .  A
C1420      C1421   1.398       .  A
C1420      H1425   1.084       .  S
C1422      C1426   1.505       .  S
C1422      C2209   1.417       .  A
C1423      C1428   1.426       .  A
C1424      H1440   1.110       .  S
C1424      H1441   1.103       .  S
C1424      H1442   1.111       .  S
C1426      H1437   1.111       .  S
C1426      H1438   1.110       .  S
C1426      H1439   1.105       .  S
C1428      C1433   1.507       .  S
C1428      C1429   1.413       .  A
C1429      C1430   1.403       .  A
C1429      H1434   1.085       .  S
C1431      C1435   1.509       .  S
C1431      C2218   1.422       .  A
C1431      C1432   1.408       .  A
C1432      C2211   1.407       .  A
C1432      H1436   1.084       .  S
C1433      H1443   1.111       .  S
C1433      H1444   1.110       .  S
C1433      H1445   1.107       .  S
C1435      H1446   1.108       .  S
C1435      H1447   1.107       .  S
C1435      H1448   1.110       .  S
C1449      C1450   1.407       .  A
C1449      C1454   1.405       .  A
C1449      H1459   1.083       .  S
C1450      C1451   1.414       .  A
C1450      C1455   1.488       .  S
C1451      C1456   1.508       .  S
C1451      C1452   1.398       .  A
C1452      C1453   1.407       .  A
C1452      H1457   1.084       .  S
C1453      C1454   1.414       .  A
C1454      C1458   1.505       .  S
C1455      C1460   1.415       .  A
C1455      C1464   1.411       .  A
C1456      H1472   1.110   1_655  S
C1456      H1473   1.106       .  S
C1456      H1474   1.110       .  S
C1458      H1469   1.110       .  S
C1458      H1470   1.107       .  S
C1458      H1471   1.110       .  S
C1460      C1465   1.509       .  S
C1460      C1461   1.396       .  A
C1461      C1462   1.402       .  A
C1461      H1466   1.082       .  S
C1462      C1463   1.405       .  A
C1463      C1467   1.503       .  S
C1463      C1464   1.405       .  A
C1464      H1468   1.084       .  S
C1465      H1475   1.109       .  S
C1465      H1476   1.110       .  S
C1465      H1477   1.107       .  S
C1467      H1478   1.110   1_655  S
C1467      H1479   1.109       .  S
C1467      H1480   1.110   1_655  S
C1481      C1482   1.408       .  A
C1481      C1486   1.407       .  A
C1481      H1491   1.084       .  S
C1482      C1483   1.427       .  A
C1482      C1487   1.509       .  S
C1483      C1488   1.509       .  S
C1483      C1484   1.406       .  A
C1484      C1485   1.397       .  A
C1484      H1489   1.084       .  S
C1485      C1486   1.418       .  A
C1486      C1490   1.506       .  S
C1487      C1492   1.424       .  A
C1487      C1496   1.404       .  A
C1488      H1504   1.110       .  S
C1488      H1505   1.103       .  S
C1488      H1506   1.111       .  S
C1490      H1501   1.111       .  S
C1490      H1502   1.111       .  S
C1490      H1503   1.105       .  S
C1492      C1497   1.503       .  S
C1492      C1493   1.409       .  A
C1493      C1494   1.400       .  A
C1493      H1498   1.085       .  S
C1494      C1495   1.421       .  A
C1495      C1499   1.506       .  S
C1495      C1496   1.406       .  A
C1496      H1500   1.084       .  S
C1497      H1507   1.108       .  S
C1497      H1508   1.110       .  S
C1497      H1509   1.107       .  S
C1499      H1510   1.111       .  S
C1499      H1511   1.104       .  S
C1499      H1512   1.110       .  S
C1513      C1518   1.405       .  A
C1513      H1523   1.080       .  S
C1514      C2301   1.403       .  A
C1514      C1515   1.421       .  A
C1514      C1519   1.499       .  S
C1515      C1520   1.505       .  S
C1515      C1516   1.408       .  A
C1516      C2305   1.400       .  A
C1516      H1521   1.084       .  S
C1517      C1518   1.415       .  A
C1518      C1522   1.505       .  S
C1519      C1524   1.419       .  A
C1519      C2316   1.404       .  A
C1520      H1536   1.110       .  S
C1520      H1537   1.103       .  S
C1520      H1538   1.111       .  S
C1522      H1533   1.111       .  S
C1522      H1534   1.110       .  S
C1522      H1535   1.106       .  S
C1524      C1529   1.508       .  S
C1524      C1525   1.407       .  A
C1525      C2314   1.405       .  A
C1525      H1530   1.084       .  S
C1526      C1527   1.422       .  A
C1527      C1531   1.508       .  S
C1527      C1528   1.410       .  A
C1528      H1532   1.084       .  S
C1529      H1539   1.109       .  S
C1529      H1540   1.110       .  S
C1529      H1541   1.107       .  S
C1531      H1542   1.108       .  S
C1531      H1543   1.110       .  S
C1531      H1544   1.111       .  S
C1545      C1550   1.404       .  A
C1545      H1555   1.084       .  S
C1546      C2333   1.407       .  A
C1546      C1547   1.427       .  A
C1546      C1551   1.502       .  S
C1547      C1552   1.509       .  S
C1547      C1548   1.402       .  A
C1548      C1549   1.394       .  A
C1548      H1553   1.085       .  S
C1549      C2338   1.415       .  A
C1550      C1554   1.505       .  S
C1551      C1556   1.425       .  A
C1551      C2348   1.398       .  A
C1552      H1568   1.110       .  S
C1552      H1569   1.100       .  S
C1552      H1570   1.111       .  S
C1554      H1565   1.111       .  S
C1554      H1566   1.109       .  S
C1554      H1567   1.104       .  S
C1556      C1561   1.505       .  S
C1556      C1557   1.413       .  A
C1557      C1558   1.401       .  A
C1557      H1562   1.084       .  S
C1558      C2347   1.424       .  A
C1559      C1563   1.510       .  S
C1559      C1560   1.398       .  A
C1560      H1564   1.084       .  S
C1561      H1571   1.109       .  S
C1561      H1572   1.106       .  S
C1561      H1573   1.109       .  S
C1563      H1574   1.111       .  S
C1563      H1575   1.104       .  S
C1563      H1576   1.110       .  S
C1577      C1579   1.543       .  S
C1577      C1581   1.567       .  S
C1577      C1580   1.573       .  S
C1577      C1600   1.709       .  S
C1578      C1582   1.574       .  S
C1578      C1584   1.562       .  S
C1578      C1583   1.555       .  S
C1578      C1601   1.723       .  S
C1579      C1587   1.373       .  A
C1580      C1591   1.380       .  A
C1581      C1595   1.379       .  A
C1582      C1585   1.387       .  A
C1583      C1589   1.383       .  A
C1584      C1592   1.384       .  A
C1585      H1598   1.080       .  S
N1586      C1587   1.359       .  A
N1586      N1724   1.421       .  S
C1587      H1588   1.080       .  S
C1589      H1599   1.082       .  S
N1590      C1591   1.359       .  A
N1590      C2305   1.441       .  S
C1591      H1597   1.073       .  S
C1592      H1594   1.067       .  S
C1592      N1593   1.339   1_556  A
N1593      C2337   1.440       .  S
C1595      H1596   1.066       .  S
C1600      C1602   1.573       .  S
C1600      C1604   1.548       .  S
C1600      C1603   1.564       .  S
C1601      C1605   1.550       .  S
C1601      C1607   1.566       .  S
C1601      C1606   1.571       .  S
C1602      C1610   1.382       .  A
C1602      C1605   1.437       .  A
C1603      C1614   1.380       .  A
C1603      C1606   1.435       .  A
C1604      C1618   1.373       .  A
C1604      C1607   1.435       .  A
C1605      C1608   1.378       .  A
C1606      C1612   1.396       .  A
C1607      C1615   1.381       .  A
C1608      H1621   1.079       .  S
C1608      N1609   1.357       .  A
N1609      C1610   1.362       .  A
N1609      N1747   1.420       .  S
C1610      H1611   1.078       .  S
C1612      H1622   1.068       .  S
C1612      N1613   1.344       .  A
N1613      C1614   1.343       .  A
N1613      C2273   1.445       .  S
C1614      H1620   1.070       .  S
C1615      H1617   1.078       .  S
C1615      N1616   1.352       .  A
N1616      C1618   1.353       .  A
N1616      C2250   1.436       .  S
C1618      H1619   1.076       .  S
C1623      C1625   1.550       .  S
C1623      C1627   1.565       .  S
C1623      C1626   1.569       .  S
C1623      C1646   1.705       .  S
C1624      C1628   1.564       .  S
C1624      C1630   1.581       .  S
C1624      C1629   1.570       .  S
C1624      C1647   1.728       .  S
C1625      C1633   1.380       .  A
C1626      C1637   1.375       .  A
C1627      C1641   1.380       .  A
C1628      C1631   1.382       .  A
C1629      C1635   1.395       .  A
C1630      C1638   1.404       .  A
C1631      H1644   1.079       .  S
C1631      N1632   1.361       .  A
N1632      N1770   1.421       .  S
C1633      H1634   1.080       .  S
C1635      H1645   1.080       .  S
C1635      N1636   1.363       .  A
C1637      H1643   1.067       .  S
C1638      H1640   1.072       .  S
C1638      N1639   1.346       .  A
N1639      C2209   1.449       .  S
C1641      H1642   1.070       .  S
C1646      C1648   1.565       .  S
C1646      C1650   1.552       .  S
C1646      C1649   1.566       .  S
C1647      C1651   1.570       .  S
C1647      C1653   1.562       .  S
C1647      C1652   1.551       .  S
C1648      C1656   1.380       .  A
C1648      C1651   1.438       .  A
C1649      C1660   1.384       .  A
C1649      C1652   1.433       .  A
C1650      C1664   1.376       .  A
C1650      C1653   1.435       .  A
C1651      C1654   1.388       .  A
C1652      C1658   1.378       .  A
C1653      C1661   1.379       .  A
C1654      H1667   1.078       .  S
C1654      N1655   1.365       .  A
N1655      C1656   1.357       .  A
N1655      N1793   1.424       .  S
C1656      H1657   1.077       .  S
C1658      H1668   1.070       .  S
C1658      N1659   1.337       .  A
N1659      C1660   1.346       .  A
N1659      C2154   1.439       .  S
C1660      H1666   1.069       .  S
C1661      H1663   1.077       .  S
C1661      N1662   1.350       .  A
N1662      C1664   1.353       .  A
N1662      C2113   1.435       .  S
C1664      H1665   1.075       .  S
Zn1669     O1673   2.086       .  S
Zn1669     O1674   1.935       .  S
Zn1669     O1678   2.079   1_565  S
Zn1669     O1685   1.969       .  S
Zn1670     O1675   2.034       .  S
Zn1670     O1677   2.185       .  S
Zn1670     O1681   1.990       .  S
Zn1671     O1676   2.130   1_565  S
Zn1671     O1679   1.974   1_655  S
Zn1671     O1682   1.982   1_656  S
Zn1672     O1673   1.987       .  S
Zn1672     O1680   2.183   1_655  S
Zn1672     O1683   1.983       .  S
Zn1672     O1684   2.034       .  S
O1674      C1686   1.257       .  A
O1675      C1687   1.265       .  A
O1678      C1688   1.278       .  A
O1679      C1687   1.254   1_455  A
O1680      C1689   1.291       .  A
O1683      C1690   1.267       .  A
O1684      C1691   1.262       .  A
O1685      C1691   1.254       .  A
C1686      C2218   1.490       .  S
C1687      C1710   1.465       .  S
C1688      C2314   1.497       .  S
C1689      C2049   1.500       .  S
C1690      C2090   1.475       .  S
C1691      C1714   1.460       .  S
Zn1692     O1696   2.049       .  S
Zn1692     O1697   2.029   1_565  S
Zn1692     O1701   2.125       .  S
Zn1692     O1708   1.954       .  S
Zn1693     O1696   2.016       .  S
Zn1693     O1698   1.964       .  S
Zn1693     O1700   1.984   1_565  S
Zn1693     O1704   2.098   1_655  S
Zn1694     O1696   1.942       .  S
Zn1694     O1699   1.980       .  S
Zn1694     O1702   2.008       .  S
Zn1694     O1705   2.113       .  S
Zn1695     O1696   1.936       .  S
Zn1695     O1703   2.089       .  S
Zn1695     O1706   1.971   1_655  S
Zn1695     O1707   1.987       .  S
O1697      C1709   1.275       .  A
O1698      C1710   1.262       .  A
O1699      C1711   1.263       .  A
O1700      C1709   1.270       .  A
O1701      C1711   1.284       .  A
O1702      C1710   1.262       .  A
O1703      C1712   1.281       .  A
O1704      C1713   1.279       .  A
O1705      C1712   1.284       .  A
O1706      C1713   1.261       .  A
O1707      C1714   1.261       .  A
O1708      C1714   1.257       .  A
C1709      C2241   1.485       .  S
C1711      C2145   1.506       .  S
C1712      C2017   1.492       .  S
C1713      C1985   1.499       .  S
C1715      C1717   1.561       .  S
C1715      C1719   1.563   1_455  S
C1715      C1718   1.562       .  S
C1715      C1738   1.716       .  S
C1716      C1720   1.564       .  S
C1716      C1722   1.550   1_455  S
C1716      C1721   1.552       .  S
C1716      C1739   1.703       .  S
C1717      C1725   1.383       .  A
C1718      C1729   1.379       .  A
C1719      C1733   1.379       .  A
C1720      C1723   1.383       .  A
C1721      C1727   1.379       .  A
C1722      C1730   1.372       .  A
C1723      H1736   1.079   1_455  S
C1723      N1724   1.361   1_455  A
C1725      H1726   1.078   1_455  S
C1727      H1737   1.079       .  S
N1728      C1729   1.357       .  A
N1728      C1953   1.440       .  S
C1729      H1735   1.070       .  S
C1730      H1732   1.081       .  S
C1730      N1731   1.349       .  A
N1731      C2081   1.436       .  S
C1733      H1734   1.080       .  S
C1738      C1740   1.564   1_455  S
C1738      C1742   1.560       .  S
C1738      C1741   1.569       .  S
C1739      C1743   1.552   1_455  S
C1739      C1745   1.563       .  S
C1739      C1744   1.559       .  S
C1740      C1748   1.383       .  A
C1740      C1743   1.426       .  A
C1741      C1752   1.381       .  A
C1741      C1744   1.429       .  A
C1742      C1756   1.377       .  A
C1742      C1745   1.439       .  A
C1743      C1746   1.374       .  A
C1744      C1750   1.384       .  A
C1745      C1753   1.385       .  A
C1746      H1759   1.079       .  S
C1746      N1747   1.360       .  A
N1747      C1748   1.366       .  A
C1748      H1749   1.080       .  S
C1750      H1760   1.081       .  S
C1750      N1751   1.359       .  A
N1751      C1752   1.363       .  A
N1751      C2026   1.451       .  S
C1752      H1758   1.073       .  S
C1753      H1755   1.080       .  S
C1753      N1754   1.355       .  A
N1754      C1756   1.352       .  A
N1754      C1921   1.438       .  S
C1756      H1757   1.078       .  S
C1761      C1763   1.568   1_545  S
C1761      C1765   1.556       .  S
C1761      C1764   1.557       .  S
C1761      C1785   1.715       .  S
C1762      C1766   1.556   1_545  S
C1762      C1768   1.555       .  S
C1762      C1767   1.570       .  S
C1762      C1784   1.703       .  S
C1763      C1771   1.387       .  A
C1764      C1775   1.372       .  A
C1765      C1779   1.372       .  A
C1766      C1769   1.378       .  A
C1767      C1773   1.397       .  A
C1768      C1776   1.379       .  A
C1769      H1782   1.078       .  S
N1770      C1771   1.362       .  A
C1771      H1772   1.079       .  S
C1773      H1783   1.079       .  S
N1774      C1775   1.351       .  A
N1774      C2058   1.450       .  S
C1775      H1781   1.067       .  S
C1776      H1778   1.080       .  S
N1777      C1779   1.354       .  A
C1779      H1780   1.075       .  S
C1784      C1786   1.568       .  S
C1784      C1788   1.566       .  S
C1784      C1787   1.548   1_545  S
C1785      C1789   1.558       .  S
C1785      C1791   1.570       .  S
C1785      C1790   1.571   1_545  S
C1786      C1794   1.385   1_545  A
C1786      C1789   1.429       .  A
C1787      C1798   1.374       .  A
C1787      C1790   1.433       .  A
C1788      C1802   1.389       .  A
C1788      C1791   1.431       .  A
C1789      C1792   1.379   1_545  A
C1790      C1796   1.387       .  A
C1791      C1799   1.387       .  A
C1792      H1805   1.079       .  S
C1792      N1793   1.360       .  A
N1793      C1794   1.367       .  A
C1794      H1795   1.080       .  S
C1796      H1806   1.075       .  S
C1796      N1797   1.360       .  A
N1797      C1798   1.347       .  A
N1797      C1994   1.442       .  S
C1798      H1804   1.079       .  S
C1799      H1801   1.075       .  S
C1799      N1800   1.362       .  A
N1800      C1802   1.358       .  A
N1800      C1866   1.454       .  S
C1802      H1803   1.081       .  S
Zn1807     O1811   2.046       .  S
Zn1807     O1812   2.137       .  S
Zn1807     O1816   2.022       .  S
Zn1807     O1823   1.988   1_556  S
Zn1808     O1813   2.024       .  S
Zn1808     O1815   1.959       .  S
Zn1808     O1819   1.938       .  S
Zn1809     O1811   1.935       .  S
Zn1809     O1814   2.059       .  S
Zn1809     O1817   2.186       .  S
Zn1809     O1820   1.965       .  S
Zn1810     O1818   2.146       .  S
Zn1810     O1821   2.009       .  S
Zn1810     O1822   2.014       .  S
O1812      C1824   1.283       .  A
O1814      C1826   1.263       .  A
O1816      C1826   1.267       .  A
O1817      C1825   1.291       .  A
O1819      C1828   1.255       .  A
O1820      C1827   1.266   1_556  A
O1821      C1828   1.269       .  A
O1823      C1829   1.265       .  A
C1824      C2346   1.489       .  S
C1825      C2177   1.501       .  S
C1826      C1848   1.458       .  S
C1827      C1962   1.505       .  S
C1828      C1852   1.458       .  S
C1829      C1898   1.474       .  S
Zn1830     O1834   2.050       .  S
Zn1830     O1835   2.156       .  S
Zn1830     O1839   2.011       .  S
Zn1830     O1846   2.008       .  S
Zn1831     O1834   2.083       .  S
Zn1831     O1836   1.964       .  S
Zn1831     O1838   1.967       .  S
Zn1831     O1842   2.074       .  S
Zn1832     O1834   1.915       .  S
Zn1832     O1837   1.977       .  S
Zn1832     O1840   2.012       .  S
Zn1832     O1843   2.094       .  S
Zn1833     O1834   1.976       .  S
Zn1833     O1841   1.976       .  S
Zn1833     O1844   2.155       .  S
Zn1833     O1845   2.030       .  S
O1835      C1847   1.289       .  A
O1836      C1848   1.250       .  A
O1837      C1849   1.259       .  A
O1838      C1847   1.268       .  A
O1839      C1849   1.272       .  A
O1840      C1848   1.270       .  A
O1841      C1850   1.266       .  A
O1842      C1851   1.281       .  A
O1843      C1850   1.277       .  A
O1844      C1851   1.289       .  A
O1845      C1852   1.263       .  A
O1846      C1852   1.261       .  A
C1847      C2282   1.496       .  S
C1849      C2122   1.487       .  S
C1850      C1930   1.471       .  S
C1851      C1857   1.525       .  S
C1853      C1854   1.410       .  A
C1853      C1858   1.420       .  A
C1853      H1863   1.084       .  S
C1854      C1855   1.420       .  A
C1854      C1859   1.520       .  S
C1855      C1860   1.510       .  S
C1855      C1856   1.412       .  A
C1856      C1857   1.415       .  A
C1856      H1861   1.084       .  S
C1857      C1858   1.425       .  A
C1858      C1862   1.506       .  S
C1859      C1864   1.425       .  A
C1859      C1868   1.408       .  A
C1860      H1876   1.109       .  S
C1860      H1877   1.107       .  S
C1860      H1878   1.110       .  S
C1862      H1873   1.111       .  S
C1862      H1874   1.104       .  S
C1862      H1875   1.110       .  S
C1864      C1869   1.505       .  S
C1864      C1865   1.418       .  A
C1865      C1866   1.405       .  A
C1865      H1870   1.084       .  S
C1866      C1867   1.416       .  A
C1867      C1871   1.504       .  S
C1867      C1868   1.409       .  A
C1868      H1872   1.080       .  S
C1869      H1879   1.111       .  S
C1869      H1880   1.110       .  S
C1869      H1881   1.105       .  S
C1871      H1882   1.109       .  S
C1871      H1883   1.107       .  S
C1871      H1884   1.111       .  S
C1885      C1890   1.405       .  A
C1885      H1895   1.084       .  S
C1886      C1887   1.414       .  A
C1886      C1891   1.477       .  S
C1887      C1892   1.510       .  S
C1887      C1888   1.394       .  A
C1888      H1893   1.081       .  S
C1889      C1890   1.408   1_554  A
C1890      C1894   1.504       .  S
C1891      C1896   1.414       .  A
C1892      H1908   1.110       .  S
C1892      H1909   1.107       .  S
C1892      H1910   1.109       .  S
C1894      H1905   1.110       .  S
C1894      H1906   1.110       .  S
C1894      H1907   1.109       .  S
C1896      C1901   1.508       .  S
C1896      C1897   1.395       .  A
C1897      H1902   1.085       .  S
C1898      C1899   1.413   1_554  A
C1899      C1903   1.507       .  S
C1899      C1900   1.404       .  A
C1900      H1904   1.083       .  S
C1901      H1911   1.108       .  S
C1901      H1912   1.110       .  S
C1901      H1913   1.107       .  S
C1903      H1914   1.109       .  S
C1903      H1915   1.110       .  S
C1903      H1916   1.110       .  S
C1917      C1918   1.404       .  A
C1917      C1922   1.399       .  A
C1917      H1927   1.084       .  S
C1918      C1919   1.425       .  A
C1918      C1923   1.501       .  S
C1919      C1924   1.506       .  S
C1919      C1920   1.408       .  A
C1920      C1921   1.397       .  A
C1920      H1925   1.084       .  S
C1921      C1922   1.414       .  A
C1922      C1926   1.505       .  S
C1923      C1928   1.422       .  A
C1923      C1932   1.408       .  A
C1924      H1940   1.110       .  S
C1924      H1941   1.102       .  S
C1924      H1942   1.111       .  S
C1926      H1937   1.109       .  S
C1926      H1938   1.110       .  S
C1926      H1939   1.107       .  S
C1928      C1933   1.506       .  S
C1928      C1929   1.401       .  A
C1929      C1930   1.398       .  A
C1929      H1934   1.085       .  S
C1930      C1931   1.412       .  A
C1931      C1935   1.506       .  S
C1931      C1932   1.405       .  A
C1932      H1936   1.083       .  S
C1933      H1943   1.110       .  S
C1933      H1944   1.110       .  S
C1933      H1945   1.104       .  S
C1935      H1946   1.109       .  S
C1935      H1947   1.108       .  S
C1935      H1948   1.110       .  S
C1949      C1954   1.408       .  A
C1949      H1959   1.083       .  S
C1950      C1951   1.418   1_554  A
C1950      C1955   1.499       .  S
C1951      C1956   1.507       .  S
C1951      C1952   1.405       .  A
C1952      C1953   1.403       .  A
C1952      H1957   1.084       .  S
C1954      C1958   1.505       .  S
C1955      C1960   1.410   1_554  A
C1956      H1972   1.110       .  S
C1956      H1973   1.105       .  S
C1956      H1974   1.109       .  S
C1958      H1969   1.110       .  S
C1958      H1970   1.110       .  S
C1958      H1971   1.109       .  S
C1960      C1965   1.510       .  S
C1960      C1961   1.401       .  A
C1961      C1962   1.414   1_556  A
C1961      H1966   1.083       .  S
C1963      C1967   1.504       .  S
C1963      C1964   1.418       .  A
C1964      H1968   1.083       .  S
C1965      H1975   1.111       .  S
C1965      H1976   1.108       .  S
C1965      H1977   1.109       .  S
C1967      H1978   1.107       .  S
C1967      H1979   1.109       .  S
C1967      H1980   1.110       .  S
C1981      C1982   1.400       .  A
C1981      C1986   1.404       .  A
C1981      H1991   1.084       .  S
C1982      C1983   1.418       .  A
C1982      C1987   1.496       .  S
C1983      C1988   1.503   1_565  S
C1983      C1984   1.405       .  A
C1984      C1985   1.403       .  A
C1984      H1989   1.084   1_565  S
C1985      C1986   1.429       .  A
C1986      C1990   1.511       .  S
C1987      C1992   1.421       .  A
C1987      C1996   1.401       .  A
C1988      H2004   1.110       .  S
C1988      H2005   1.106       .  S
C1988      H2006   1.110       .  S
C1990      H2001   1.111       .  S
C1990      H2002   1.106       .  S
C1990      H2003   1.111       .  S
C1992      C1997   1.507       .  S
C1992      C1993   1.410       .  A
C1993      C1994   1.402       .  A
C1993      H1998   1.084       .  S
C1994      C1995   1.417       .  A
C1995      C1999   1.503   1_565  S
C1995      C1996   1.398       .  A
C1996      H2000   1.083   1_565  S
C1997      H2007   1.111       .  S
C1997      H2008   1.110       .  S
C1997      H2009   1.107       .  S
C1999      H2010   1.110       .  S
C1999      H2011   1.105       .  S
C1999      H2012   1.111       .  S
C2013      C2014   1.410       .  A
C2013      C2018   1.411       .  A
C2013      H2023   1.083       .  S
C2014      C2015   1.422   1_655  A
C2014      C2019   1.514       .  S
C2015      C2020   1.508       .  S
C2015      C2016   1.412       .  A
C2016      C2017   1.403   1_455  A
C2016      H2021   1.084       .  S
C2017      C2018   1.415       .  A
C2018      C2022   1.507       .  S
C2019      C2024   1.420       .  A
C2019      C2028   1.410   1_655  A
C2020      H2036   1.107       .  S
C2020      H2037   1.107       .  S
C2020      H2038   1.111       .  S
C2022      H2033   1.110       .  S
C2022      H2034   1.109       .  S
C2022      H2035   1.108       .  S
C2024      C2029   1.505       .  S
C2024      C2025   1.410       .  A
C2025      C2026   1.403   1_655  A
C2025      H2030   1.083       .  S
C2026      C2027   1.414       .  A
C2027      C2031   1.505       .  S
C2027      C2028   1.414       .  A
C2028      H2032   1.082       .  S
C2029      H2039   1.111       .  S
C2029      H2040   1.107       .  S
C2029      H2041   1.109       .  S
C2031      H2042   1.109       .  S
C2031      H2043   1.110       .  S
C2031      H2044   1.111       .  S
C2045      C2050   1.413       .  A
C2045      H2055   1.080       .  S
C2046      C2047   1.420   1_565  A
C2046      C2051   1.517       .  S
C2047      C2052   1.508       .  S
C2047      C2048   1.411   1_545  A
C2048      C2049   1.408       .  A
C2048      H2053   1.085   1_565  S
C2050      C2054   1.506       .  S
C2051      C2056   1.420       .  A
C2052      H2068   1.110       .  S
C2052      H2069   1.106       .  S
C2052      H2070   1.107       .  S
C2054      H2065   1.110   1_554  S
C2054      H2066   1.110       .  S
C2054      H2067   1.111   1_554  S
C2056      C2061   1.508       .  S
C2056      C2057   1.409       .  A
C2057      C2058   1.406   1_565  A
C2057      H2062   1.082       .  S
C2059      C2063   1.504   1_554  S
C2059      C2060   1.411       .  A
C2060      H2064   1.082       .  S
C2061      H2071   1.109       .  S
C2061      H2072   1.110       .  S
C2061      H2073   1.106       .  S
C2063      H2074   1.110       .  S
C2063      H2075   1.109       .  S
C2063      H2076   1.110   1_556  S
C2077      C2082   1.404       .  A
C2077      H2087   1.084       .  S
C2078      C2079   1.411   1_554  A
C2078      C2083   1.476       .  S
C2079      C2084   1.509   1_655  S
C2079      C2080   1.391       .  A
C2080      H2085   1.074   1_655  S
C2081      C2082   1.413       .  A
C2082      C2086   1.504       .  S
C2083      C2088   1.411       .  A
C2084      H2100   1.108       .  S
C2084      H2101   1.107       .  S
C2084      H2102   1.111       .  S
C2086      H2097   1.110       .  S
C2086      H2098   1.111       .  S
C2086      H2099   1.108       .  S
C2088      C2093   1.509   1_554  S
C2088      C2089   1.396   1_554  A
C2089      H2094   1.084       .  S
C2090      C2091   1.415       .  A
C2091      C2095   1.509   1_655  S
C2091      C2092   1.399       .  A
C2092      H2096   1.080   1_655  S
C2093      H2103   1.111       .  S
C2093      H2104   1.109   1_556  S
C2093      H2105   1.106       .  S
C2095      H2106   1.111       .  S
C2095      H2107   1.108       .  S
C2095      H2108   1.110       .  S
C2109      C2110   1.399       .  A
C2109      C2114   1.391       .  A
C2109      H2119   1.085       .  S
C2110      C2111   1.421       .  A
C2110      C2115   1.487       .  S
C2111      C2116   1.507       .  S
C2111      C2112   1.407       .  A
C2112      C2113   1.399       .  A
C2112      H2117   1.084       .  S
C2113      C2114   1.416       .  A
C2114      C2118   1.505       .  S
C2115      C2120   1.416       .  A
C2115      C2124   1.401       .  A
C2116      H2132   1.110       .  S
C2116      H2133   1.106       .  S
C2116      H2134   1.111       .  S
C2118      H2129   1.111       .  S
C2118      H2130   1.110       .  S
C2118      H2131   1.103       .  S
C2120      C2125   1.503       .  S
C2120      C2121   1.395       .  A
C2121      C2122   1.400       .  A
C2121      H2126   1.084       .  S
C2122      C2123   1.425       .  A
C2123      C2127   1.510       .  S
C2123      C2124   1.404       .  A
C2124      H2128   1.084       .  S
C2125      H2135   1.106       .  S
C2125      H2136   1.110       .  S
C2125      H2137   1.107       .  S
C2127      H2138   1.111       .  S
C2127      H2139   1.106       .  S
C2127      H2140   1.110       .  S
C2141      C2142   1.400       .  A
C2141      C2146   1.404       .  A
C2141      H2151   1.084       .  S
C2142      C2143   1.420       .  A
C2142      C2147   1.503       .  S
C2143      C2148   1.503       .  S
C2143      C2144   1.409       .  A
C2144      C2145   1.405       .  A
C2144      H2149   1.084       .  S
C2145      C2146   1.429       .  A
C2146      C2150   1.510       .  S
C2147      C2152   1.423       .  A
C2147      C2156   1.407       .  A
C2148      H2164   1.110       .  S
C2148      H2165   1.108       .  S
C2148      H2166   1.108       .  S
C2150      H2161   1.110       .  S
C2150      H2162   1.111       .  S
C2150      H2163   1.103       .  S
C2152      C2157   1.508       .  S
C2152      C2153   1.406       .  A
C2153      C2154   1.399       .  A
C2153      H2158   1.084       .  S
C2154      C2155   1.416       .  A
C2155      C2159   1.505       .  S
C2155      C2156   1.404       .  A
C2156      H2160   1.084       .  S
C2157      H2167   1.111       .  S
C2157      H2168   1.110       .  S
C2157      H2169   1.104       .  S
C2159      H2170   1.108       .  S
C2159      H2171   1.104       .  S
C2159      H2172   1.111       .  S
C2173      C2178   1.412       .  A
C2173      H2183   1.084       .  S
C2174      C2175   1.428       .  A
C2174      C2179   1.524       .  S
C2175      C2180   1.507       .  S
C2175      C2176   1.417       .  A
C2176      H2181   1.084       .  S
C2177      C2178   1.422       .  A
C2178      C2182   1.508       .  S
C2179      C2184   1.431       .  A
C2180      H2196   1.110       .  S
C2180      H2197   1.106       .  S
C2180      H2198   1.110       .  S
C2182      H2193   1.110       .  S
C2182      H2194   1.109       .  S
C2182      H2195   1.107       .  S
C2184      C2189   1.509       .  S
C2184      C2185   1.416       .  A
C2185      H2190   1.084       .  S
C2186      C2187   1.416       .  A
C2187      C2191   1.505       .  S
C2187      C2188   1.409       .  A
C2188      H2192   1.084       .  S
C2189      H2199   1.111       .  S
C2189      H2200   1.110       .  S
C2189      H2201   1.105       .  S
C2191      H2202   1.110       .  S
C2191      H2203   1.107       .  S
C2191      H2204   1.111   1_556  S
C2205      C2210   1.410       .  A
C2205      H2215   1.084       .  S
C2206      C2207   1.428       .  A
C2206      C2211   1.516       .  S
C2207      C2212   1.509       .  S
C2207      C2208   1.410       .  A
C2208      C2209   1.399       .  A
C2208      H2213   1.084       .  S
C2210      C2214   1.505       .  S
C2211      C2216   1.425       .  A
C2212      H2228   1.110       .  S
C2212      H2229   1.103       .  S
C2212      H2230   1.111       .  S
C2214      H2225   1.111       .  S
C2214      H2226   1.110       .  S
C2214      H2227   1.105       .  S
C2216      C2221   1.506       .  S
C2216      C2217   1.411       .  A
C2217      C2218   1.402       .  A
C2217      H2222   1.085       .  S
C2219      C2223   1.509       .  S
C2219      C2220   1.407       .  A
C2220      H2224   1.084       .  S
C2221      H2231   1.111       .  S
C2221      H2232   1.110       .  S
C2221      H2233   1.107       .  S
C2223      H2234   1.108       .  S
C2223      H2235   1.107       .  S
C2223      H2236   1.110       .  S
C2237      C2238   1.407       .  A
C2237      C2242   1.405       .  A
C2237      H2247   1.084       .  S
C2238      C2239   1.413       .  A
C2238      C2243   1.486       .  S
C2239      C2244   1.508       .  S
C2239      C2240   1.398       .  A
C2240      C2241   1.406       .  A
C2240      H2245   1.085       .  S
C2241      C2242   1.415       .  A
C2242      C2246   1.506       .  S
C2243      C2248   1.413       .  A
C2243      C2252   1.410       .  A
C2244      H2260   1.110   1_655  S
C2244      H2261   1.107       .  S
C2244      H2262   1.111       .  S
C2246      H2257   1.110       .  S
C2246      H2258   1.107       .  S
C2246      H2259   1.110       .  S
C2248      C2253   1.509       .  S
C2248      C2249   1.396       .  A
C2249      C2250   1.402       .  A
C2249      H2254   1.081       .  S
C2250      C2251   1.407       .  A
C2251      C2255   1.503       .  S
C2251      C2252   1.405       .  A
C2252      H2256   1.084       .  S
C2253      H2263   1.109       .  S
C2253      H2264   1.110       .  S
C2253      H2265   1.107       .  S
C2255      H2266   1.111       .  S
C2255      H2267   1.109       .  S
C2255      H2268   1.110   1_655  S
C2269      C2270   1.406       .  A
C2269      C2274   1.404       .  A
C2269      H2279   1.084       .  S
C2270      C2271   1.428       .  A
C2270      C2275   1.509       .  S
C2271      C2276   1.510       .  S
C2271      C2272   1.409       .  A
C2272      C2273   1.399       .  A
C2272      H2277   1.084       .  S
C2273      C2274   1.418       .  A
C2274      C2278   1.506       .  S
C2275      C2280   1.426       .  A
C2275      C2284   1.404       .  A
C2276      H2292   1.110       .  S
C2276      H2293   1.103       .  S
C2276      H2294   1.111       .  S
C2278      H2289   1.111       .  S
C2278      H2290   1.110       .  S
C2278      H2291   1.104       .  S
C2280      C2285   1.507       .  S
C2280      C2281   1.409       .  A
C2281      C2282   1.401       .  A
C2281      H2286   1.085       .  S
C2282      C2283   1.422       .  A
C2283      C2287   1.507       .  S
C2283      C2284   1.407       .  A
C2284      H2288   1.084       .  S
C2285      H2295   1.109       .  S
C2285      H2296   1.110       .  S
C2285      H2297   1.108       .  S
C2287      H2298   1.111       .  S
C2287      H2299   1.104       .  S
C2287      H2300   1.110       .  S
C2301      C2306   1.402       .  A
C2301      H2311   1.081       .  S
C2302      C2303   1.425       .  A
C2302      C2307   1.511       .  S
C2303      C2308   1.506       .  S
C2303      C2304   1.411       .  A
C2304      H2309   1.084       .  S
C2305      C2306   1.415       .  A
C2306      C2310   1.505       .  S
C2307      C2312   1.423       .  A
C2308      H2324   1.110       .  S
C2308      H2325   1.103       .  S
C2308      H2326   1.111       .  S
C2310      H2321   1.111       .  S
C2310      H2322   1.110       .  S
C2310      H2323   1.106       .  S
C2312      C2317   1.507       .  S
C2312      C2313   1.412       .  A
C2313      H2318   1.084       .  S
C2314      C2315   1.421       .  A
C2315      C2319   1.508       .  S
C2315      C2316   1.408       .  A
C2316      H2320   1.084       .  S
C2317      H2327   1.109       .  S
C2317      H2328   1.110       .  S
C2317      H2329   1.106       .  S
C2319      H2330   1.108       .  S
C2319      H2331   1.109       .  S
C2319      H2332   1.111       .  S
C2333      C2338   1.404       .  A
C2333      H2343   1.082       .  S
C2334      C2335   1.424       .  A
C2334      C2339   1.503       .  S
C2335      C2340   1.509       .  S
C2335      C2336   1.405   1_556  A
C2336      C2337   1.398       .  A
C2336      H2341   1.084   1_554  S
C2338      C2342   1.505       .  S
C2339      C2344   1.424       .  A
C2340      H2356   1.110   1_556  S
C2340      H2357   1.103       .  S
C2340      H2358   1.111       .  S
C2342      H2353   1.111       .  S
C2342      H2354   1.109       .  S
C2342      H2355   1.104       .  S
C2344      C2349   1.502       .  S
C2344      C2345   1.409       .  A
C2345      C2346   1.398       .  A
C2345      H2350   1.084       .  S
C2347      C2351   1.509       .  S
C2347      C2348   1.400       .  A
C2348      H2352   1.084       .  S
C2349      H2359   1.105       .  S
C2349      H2360   1.110       .  S
C2349      H2361   1.107       .  S
C2351      H2362   1.111       .  S
C2351      H2363   1.105       .  S
C2351      H2364   1.110       .  S
