geometry optimzed in LAMMPS
_audit_creation_date              2020-11-30 
_audit_creation_method            'lammps2cif' 
_symmetry_space_group_name_H-M    'P1' 
_symmetry_Int_Tables_number       1 
_symmetry_cell_setting            triclinic 
loop_ 
_symmetry_equiv_pos_as_xyz 
  x,y,z 
_cell_length_a                    26.80822223495251 
_cell_length_b                    26.540591703894233 
_cell_length_c                    22.01701299124615 
_cell_angle_alpha                 89.74596584765835 
_cell_angle_beta                  90.78382318845789 
_cell_angle_gamma                 119.49844052828068 
loop_ 
_atom_site_label 
_atom_site_type_symbol 
_atom_site_fract_x 
_atom_site_fract_y 
_atom_site_fract_z 
_atom_site_charge 
O1          O  0.53867155  0.35116284  0.92653067    -0.88860
C2          C  0.83794405  0.50640187  0.08125417     1.11180
O3          O  0.61851243  0.31826984  0.99999165    -1.36660
O4          O  0.79611292  0.51113246  0.93288379    -0.90340
O5          O  0.49946818  0.25494644  0.92950763    -0.91010
O6          O  0.62013103  0.25609066  0.87257143    -0.79830
O7          O  0.66655855  0.43095661  0.94112769    -1.01920
C8          C  0.79242027  0.33864966  0.88256353     1.21230
O9          O  0.68974793  0.26936601  0.99974256    -1.36810
Mn10       Mn  0.68595009  0.32833359  0.06623961     1.82050
O11         O  0.74388422  0.33214842  0.86703617    -0.78900
O12         O  0.84875045  0.46774111  0.92990227    -0.88300
C13         C  0.80244754  0.33628525  0.10586490     1.12310
C14         C  0.84017754  0.50922474  0.91551743     1.07040
O15         O  0.63093884  0.26374961  0.13065596    -0.79840
O16         O  0.73784745  0.38954227  0.99694684    -1.33540
O17         O  0.57761868  0.20804653  0.06103203    -0.99050
C18         C  0.69688552  0.15926944  0.92148182     1.05750
Mn19       Mn  0.82350973  0.40364365  0.99516921     1.48570
O20         O  0.65031969  0.14780856  0.94620627    -0.88250
Mn21       Mn  0.54113840  0.23559095  0.00021389     1.49560
O22         O  0.53674411  0.35694478  0.06083796    -0.92130
C23         C  0.66691508  0.42592929  0.88679658     1.18940
C24         C  0.49997156  0.30688304  0.07920017     1.11000
Mn25       Mn  0.67978346  0.32437644  0.93180627     1.80970
O26         O  0.80638473  0.33805533  0.05090033    -0.97280
Mn27       Mn  0.60198661  0.38931258  0.99588666     1.49260
C28         C  0.50232522  0.30053961  0.90742487     1.07520
Mn29       Mn  0.77076365  0.27215794  0.99465613     1.49930
C30         C  0.70511927  0.16758780  0.08779043     1.10430
O31         O  0.57337378  0.20050840  0.94523344    -1.03080
O32         O  0.85247831  0.47029781  0.06134018    -0.92740
C33         C  0.57949430  0.20771793  0.89008159     1.21710
O34         O  0.80160137  0.33871066  0.93720359    -1.03470
O35         O  0.79344744  0.50744144  0.06390983    -0.90870
O36         O  0.74886674  0.20743550  0.06150694    -0.90480
O37         O  0.49961733  0.26094049  0.06290274    -0.90500
Mn38       Mn  0.73153646  0.46720291  0.99711760     1.47860
O39         O  0.75758069  0.33613963  0.12593410    -0.78970
C40         C  0.58709746  0.21635757  0.11569519     1.14760
O41         O  0.67031393  0.38246739  0.86879264    -0.77710
O42         O  0.67890254  0.39024896  0.12711690    -0.77320
Mn43       Mn  0.61781038  0.18280213  0.00643016     1.51060
O44         O  0.74251523  0.20747448  0.92896831    -0.89670
O45         O  0.66657002  0.43366264  0.05301489    -0.97200
O46         O  0.65423699  0.15712856  0.07661358    -0.92210
C47         C  0.67029175  0.43088706  0.10791671     1.12550
C48         C  0.72181583  0.02763711  0.28238060    -0.00110
C49         C  0.67911402  0.96912220  0.28193890    -0.00110
C50         C  0.43833950  0.03287785  0.29127075    -0.00110
C51         C  0.40377810  0.97038955  0.29500247    -0.00110
C52         C  0.68297971  0.96120699  0.72139297    -0.00110
C53         C  0.71273869  0.02081008  0.72754993    -0.00110
C54         C  0.38469597  0.96700051  0.71325253    -0.00110
C55         C  0.41786404  0.02883585  0.71023979    -0.00110
C56         C  0.66553488  0.61085668  0.26790876    -0.00110
C57         C  0.62392856  0.62938284  0.27280217    -0.00110
C58         C  0.35361997  0.30339886  0.27745890    -0.00110
C59         C  0.32275326  0.33331706  0.27564575    -0.00110
C60         C  0.66782502  0.61034196  0.72647934    -0.00110
C61         C  0.63546038  0.63996983  0.72711990    -0.00110
C62         C  0.35652053  0.31188232  0.71508105    -0.00110
C63         C  0.31738704  0.33129442  0.72095605    -0.00110
C64         C  0.62662831  0.78478768  0.46855539    -0.00110
C65         C  0.62801424  0.78709574  0.53264534    -0.00110
C66         C  0.99227503  0.34941883  0.26964292    -0.00110
C67         C  0.05411479  0.38314980  0.26791352    -0.00110
C68         C  0.98511988  0.65536668  0.27672970    -0.00110
C69         C  0.04478007  0.68340292  0.27503712    -0.00110
C70         C  0.99146011  0.65978242  0.72403537    -0.00110
C71         C  0.05095807  0.69152263  0.71877542    -0.00110
C72         C  0.97868729  0.36131291  0.72492810    -0.00110
C73         C  0.03957734  0.39831017  0.71999468    -0.00110
C74         C  0.21078593  0.82885932  0.46352655    -0.00110
C75         C  0.20484918  0.82435721  0.52698682    -0.00110
C76         C  0.16865659  0.34077426  0.53434776    -0.00110
C77         C  0.17626037  0.34401166  0.47007397    -0.00110
C78         C  0.85858889  0.18139277  0.47082836    -0.00110
C79         C  0.85306810  0.18367233  0.53430744    -0.00110
C80         C  0.83188981  0.64782957  0.46729305    -0.00110
C81         C  0.82897378  0.64625600  0.53091311    -0.00110
C82         C  0.40600819  0.18466737  0.46893363    -0.00110
C83         C  0.40294432  0.18683870  0.53263354    -0.00110
O84         O  0.37975111  0.52198169  0.05791104    -0.88860
C85         C  0.53155823  0.82641498  0.91813036     1.11180
O86         O  0.34691618  0.60362935  0.99560655    -1.36660
O87         O  0.52762008  0.77857136  0.07987099    -0.90340
O88         O  0.28560848  0.48348905  0.05751881    -0.91010
O89         O  0.28613760  0.60492659  0.12422709    -0.79830
O90         O  0.45745380  0.64885171  0.05714798    -1.01920
C91         C  0.37189674  0.78345964  0.11367317     1.21230
O92         O  0.30030389  0.67616129  0.99629319    -1.36810
Mn93       Mn  0.35710281  0.66826029  0.92904850     1.82060
O94         O  0.36443256  0.73374253  0.12894323    -0.78900
O95         O  0.49981525  0.84252319  0.05758477    -0.88300
C96         C  0.36771601  0.78414308  0.88583475     1.12310
C97         C  0.53239393  0.82850611  0.08590067     1.07040
O98         O  0.28882904  0.61016238  0.86352794    -0.79840
O99         O  0.41772561  0.72319589  0.99972774    -1.33540
O100        O  0.23374574  0.56313020  0.93466298    -0.99050
C101        C  0.19643553  0.68404517  0.08545328     1.05750
Mn102      Mn  0.43175190  0.81084569  0.99674039     1.48570
O103        O  0.18455051  0.63659192  0.06080763    -0.88250
Mn104      Mn  0.26400647  0.52662759  0.99141897     1.49560
O105        O  0.38131908  0.52850703  0.92496147    -0.92130
C106        C  0.45158257  0.64506875  0.11161615     1.18940
C107        C  0.33223828  0.49183083  0.90445013     1.11000
Mn108      Mn  0.35427733  0.66580541  0.06524204     1.80970
O109        O  0.36692322  0.78992328  0.94134336    -0.97280
Mn110      Mn  0.41770788  0.58828965  0.99621443     1.49260
C111        C  0.33107243  0.48451938  0.07628640     1.07520
Mn112      Mn  0.30426298  0.75909892  0.00186056     1.49930
C113        C  0.20160338  0.69643589  0.91206309     1.10430
O114        O  0.23305458  0.55949841  0.04941599    -1.03080
O115        O  0.49056862  0.83660270  0.92582300    -0.92740
C116        C  0.23908184  0.56307980  0.10457771     1.21710
O117        O  0.37125554  0.79178172  0.05867045    -1.03470
O118        O  0.53628502  0.78812042  0.94757460    -0.90870
O119        O  0.24181428  0.74112183  0.93636018    -0.90480
O120        O  0.28585504  0.48734454  0.92348353    -0.90500
Mn121      Mn  0.49461384  0.71902451  0.00724075     1.47860
O122        O  0.36635448  0.73770240  0.86830581    -0.78970
C123        C  0.23915613  0.57028461  0.87985202     1.14760
O124        O  0.41069988  0.65222580  0.13005480    -0.77710
O125        O  0.42106344  0.65945464  0.86987160    -0.77320
Mn126      Mn  0.21401705  0.60531372  0.99302664     1.51060
O127        O  0.24061714  0.73173060  0.07091453    -0.89670
O128        O  0.46716405  0.65564389  0.94587601    -0.97200
O129        O  0.18907854  0.64537687  0.92662739    -0.92210
C130        C  0.46481326  0.65648251  0.89084528     1.12550
C131        C  0.11886620  0.33164166  0.64168759    -0.02530
C132        C  0.12593980  0.35009217  0.57792798     0.07150
C133        C  0.10000776  0.38573282  0.56567446    -0.02640
C134        C  0.06316406  0.39137149  0.60788048    -0.02640
C135        C  0.06842565  0.38268870  0.67035647     0.07290
C136        C  0.10062344  0.35660053  0.68692309    -0.02840
Br137      Br  0.10921254  0.34480820  0.77365021    -0.01390
Br138      Br  0.11932686  0.26500572  0.67547778    -0.01460
Br139      Br  0.01502403  0.42338434  0.58191255    -0.01420
Br140      Br  0.13188043  0.45149116  0.51487793    -0.01400
C141        C  0.89245754  0.31013866  0.64603281    -0.02530
C142        C  0.94355632  0.31569142  0.67458452     0.07150
C143        C  0.96074937  0.27669302  0.65221602    -0.02640
C144        C  0.94132073  0.25014853  0.59546675    -0.02640
C145        C  0.88707148  0.23690435  0.57371207     0.07290
C146        C  0.86085424  0.26529381  0.60321646    -0.02840
Br147      Br  0.78488224  0.25052126  0.58053572    -0.01390
Br148      Br  0.86434645  0.36369299  0.65587741    -0.01460
Br149      Br  0.99304119  0.23924356  0.54662679    -0.01420
Br150      Br  0.98689608  0.23718339  0.70493379    -0.01400
C151        C  0.18973431  0.52767665  0.77366501    -0.02530
C152        C  0.18649546  0.53216770  0.83726779     0.07150
C153        C  0.12980139  0.49854606  0.86051141    -0.02640
C154        C  0.08415853  0.45263844  0.82673389    -0.02640
C155        C  0.08535124  0.44973071  0.76204739     0.07290
C156        C  0.13910755  0.49385621  0.73714813    -0.02840
Br157      Br  0.14475793  0.51771732  0.65408443    -0.01390
Br158      Br  0.26315528  0.56795020  0.73459641    -0.01460
Br159      Br  0.02819854  0.39142037  0.87551184    -0.01420
Br160      Br  0.10726614  0.52229851  0.93225617    -0.01400
C161        C  0.11519626  0.78324850  0.66291625    -0.02530
C162        C  0.07976918  0.72272026  0.66101452     0.07150
C163        C  0.07752458  0.69409130  0.60553560    -0.02640
C164        C  0.11857826  0.72494436  0.55990954    -0.02640
C165        C  0.14872103  0.78671488  0.56026307     0.07290
C166        C  0.13614433  0.81304375  0.60915922    -0.02840
Br167      Br  0.12657014  0.87981589  0.60134564    -0.01390
Br168      Br  0.13270658  0.83003953  0.73544053    -0.01460
Br169      Br  0.13967980  0.68020082  0.50871600    -0.01420
Br170      Br  0.02680669  0.61193383  0.59459557    -0.01400
C171        C  0.90539633  0.60310132  0.65063267    -0.02530
C172        C  0.95216368  0.65673518  0.66994093     0.07150
C173        C  0.95980724  0.70613738  0.63663106    -0.02640
C174        C  0.92835771  0.69997043  0.58233362    -0.02640
C175        C  0.87675570  0.64815820  0.57037492     0.07290
C176        C  0.86542805  0.59944091  0.60598424    -0.02840
Br177      Br  0.79876257  0.52439471  0.58756954    -0.01390
Br178      Br  0.89772583  0.53258536  0.67836044    -0.01460
Br179      Br  0.95529982  0.76458378  0.52770022    -0.01420
Br180      Br  0.99892086  0.78251592  0.67119745    -0.01400
C181        C  0.13762990  0.68635045  0.75810465    -0.02530
C182        C  0.09318545  0.69979316  0.76951879     0.07150
C183        C  0.09076221  0.72001271  0.82886340    -0.02640
C184        C  0.12625006  0.71878442  0.87602698    -0.02640
C185        C  0.16849066  0.70401300  0.86321783     0.07290
C186        C  0.17680926  0.69230127  0.80382252    -0.02840
Br187      Br  0.24120873  0.68197366  0.78591446    -0.01390
Br188      Br  0.13538584  0.64084800  0.68956478    -0.01460
Br189      Br  0.11576597  0.73466096  0.95907776    -0.01420
Br190      Br  0.04257531  0.75221253  0.84802700    -0.01400
C191        C  0.11290324  0.78931643  0.40979052    -0.02530
C192        C  0.16382448  0.78681767  0.42072919     0.07150
C193        C  0.17173015  0.74655231  0.38524775    -0.02640
C194        C  0.12732383  0.70634887  0.34765963    -0.02640
C195        C  0.08172220  0.71583771  0.32973759     0.07290
C196        C  0.07818493  0.76146499  0.35870588    -0.02840
Br197      Br  0.04083098  0.79946680  0.32010882    -0.01390
Br198      Br  0.08947177  0.83220335  0.46027116    -0.01460
Br199      Br  0.13074743  0.63836378  0.32183641    -0.01420
Br200      Br  0.24056829  0.74105889  0.38646295    -0.01400
C201        C  0.89845321  0.69663248  0.37929950    -0.02530
C202        C  0.88548853  0.65977438  0.43056275     0.07150
C203        C  0.91561559  0.62755378  0.43355188    -0.02640
C204        C  0.95644761  0.63520345  0.38879118    -0.02640
C205        C  0.95499318  0.65996261  0.33207628     0.07290
C206        C  0.92095060  0.68655438  0.32706612    -0.02840
Br207      Br  0.90738175  0.71471925  0.25106281    -0.01390
Br208      Br  0.90411169  0.77141256  0.38273256    -0.01460
Br209      Br  0.00328091  0.59861692  0.40020616    -0.01420
Br210      Br  0.89681613  0.56340968  0.48616548    -0.01400
C211        C  0.06621457  0.63200077  0.18825546    -0.02530
C212        C  0.07873060  0.68286309  0.22055052     0.07150
C213        C  0.13120248  0.73301571  0.20677565    -0.02640
C214        C  0.17250423  0.72792173  0.17354706    -0.02640
C215        C  0.15543808  0.68268297  0.13187367     0.07290
C216        C  0.09882697  0.63548619  0.13713491    -0.02840
Br217      Br  0.06266008  0.57725747  0.07520958    -0.01390
Br218      Br  0.02036587  0.55739626  0.22359101    -0.01460
Br219      Br  0.24638962  0.75867719  0.21072964    -0.01420
Br220      Br  0.14887786  0.80919623  0.23116110    -0.01400
C221        C  0.09658656  0.31223706  0.39411720    -0.02530
C222        C  0.14112614  0.35819286  0.42594304     0.07150
C223        C  0.15921335  0.41457692  0.40153999    -0.02640
C224        C  0.12245904  0.42287221  0.36078184    -0.02640
C225        C  0.08372282  0.37565293  0.32389012     0.07290
C226        C  0.07858485  0.32145228  0.33744970    -0.02840
Br227      Br  0.07210147  0.26992080  0.27356127    -0.01390
Br228      Br  0.06015702  0.23652431  0.42558006    -0.01460
Br229      Br  0.13163691  0.49961274  0.35056452    -0.01420
Br230      Br  0.23252618  0.48160934  0.41883731    -0.01400
C231        C  0.94238074  0.24863187  0.32149173    -0.02530
C232        C  0.96309989  0.30895892  0.32523447     0.07150
C233        C  0.95706506  0.32864729  0.38351363    -0.02640
C234        C  0.91869946  0.28927080  0.42717081    -0.02640
C235        C  0.90251288  0.22923303  0.42658470     0.07290
C236        C  0.92264573  0.21297519  0.37390855    -0.02840
Br237      Br  0.93527375  0.14786686  0.37127477    -0.01390
Br238      Br  0.93776669  0.21049550  0.24516128    -0.01460
Br239      Br  0.88142223  0.32094040  0.47417169    -0.01420
Br240      Br  0.00295854  0.40759677  0.41033135    -0.01400
C241        C  0.16055517  0.45436687  0.23278201    -0.02530
C242        C  0.09937933  0.42707917  0.21986378     0.07150
C243        C  0.08940605  0.44587546  0.16204637    -0.02640
C244        C  0.13561057  0.47883081  0.12205346    -0.02640
C245        C  0.19137262  0.51787498  0.14486182     0.07290
C246        C  0.20038505  0.50734765  0.20536678    -0.02840
Br247      Br  0.26843842  0.55883415  0.25005319    -0.01390
Br248      Br  0.19819433  0.41351689  0.26324716    -0.01460
Br249      Br  0.12483508  0.44949337  0.04100945    -0.01420
Br250      Br  0.02078496  0.44211778  0.13394986    -0.01400
C251        C  0.24904999  0.38601163  0.60560307    -0.02530
C252        C  0.21348973  0.33656724  0.57080497     0.07150
C253        C  0.20853840  0.28236460  0.58789956    -0.02640
C254        C  0.24092887  0.27964571  0.63788169    -0.02640
C255        C  0.27633919  0.32997119  0.67202905     0.07290
C256        C  0.26860750  0.37864494  0.66156127    -0.02840
Br257      Br  0.24592515  0.41293453  0.72523423    -0.01390
Br258      Br  0.25475606  0.46088793  0.58956943    -0.01460
Br259      Br  0.22589304  0.20514659  0.66794115    -0.01420
Br260      Br  0.14338488  0.20986865  0.56300515    -0.01400
C261        C  0.43868802  0.26816445  0.61189706    -0.02530
C262        C  0.39583348  0.23242005  0.56795470     0.07150
C263        C  0.34803744  0.24224588  0.56181509    -0.02640
C264        C  0.34485757  0.28330106  0.59937418    -0.02640
C265        C  0.37524721  0.29824628  0.65470935     0.07290
C266        C  0.42978388  0.30501415  0.65003980    -0.02840
Br267      Br  0.49134094  0.38294207  0.65840280    -0.01390
Br268      Br  0.51218196  0.27358044  0.62238401    -0.01460
Br269      Br  0.35125396  0.34741303  0.55312213    -0.01420
Br270      Br  0.28409672  0.20311658  0.50650686    -0.01400
C271        C  0.36048602  0.47021314  0.80451863    -0.02530
C272        C  0.32917399  0.45024227  0.85849838     0.07150
C273        C  0.29580937  0.39006604  0.86919032    -0.02640
C274        C  0.29219170  0.35031749  0.82490265    -0.02640
C275        C  0.32604980  0.37048832  0.77260363     0.07290
C276        C  0.36214006  0.43055522  0.76373690    -0.02840
Br277      Br  0.40429051  0.45742860  0.68935391    -0.01390
Br278      Br  0.38660306  0.54835543  0.77805447    -0.01460
Br279      Br  0.23832254  0.26920814  0.83375740    -0.01420
Br280      Br  0.25461131  0.36159143  0.94405366    -0.01400
C281        C  0.68502304  0.72534552  0.64858031    -0.02530
C282        C  0.63537866  0.67400575  0.66948684     0.07150
C283        C  0.58399522  0.65560834  0.63409619    -0.02640
C284        C  0.58089476  0.68996549  0.58601635    -0.02640
C285        C  0.63059076  0.74007824  0.56749939     0.07290
C286        C  0.68341833  0.75370981  0.59535689    -0.02840
Br287      Br  0.75346007  0.81740506  0.56374731    -0.01390
Br288      Br  0.75214198  0.77291873  0.69524206    -0.01460
Br289      Br  0.50839344  0.67229518  0.54912478    -0.01420
Br290      Br  0.51525662  0.58616611  0.65186336    -0.01400
C291        C  0.68400227  0.58628008  0.61837656    -0.02530
C292        C  0.70405752  0.62096232  0.67087126     0.07150
C293        C  0.76107642  0.66475406  0.67308915    -0.02640
C294        C  0.79467666  0.68052018  0.62065385    -0.02640
C295        C  0.77942899  0.64218886  0.56986722     0.07290
C296        C  0.72213059  0.59385155  0.57021484    -0.02840
Br297      Br  0.69274934  0.53411602  0.50999073    -0.01390
Br298      Br  0.60580844  0.52420102  0.61647267    -0.01460
Br299      Br  0.85634576  0.75874318  0.61856251    -0.01420
Br300      Br  0.79486561  0.69546801  0.75222615    -0.01400
C301        C  0.50839526  0.59620166  0.84056569    -0.02530
C302        C  0.51130741  0.65050875  0.85283659     0.07150
C303        C  0.56930582  0.69584890  0.84906562    -0.02640
C304        C  0.60932534  0.69233214  0.80953257    -0.02640
C305        C  0.59594598  0.64048316  0.77794315     0.07290
C306        C  0.54512602  0.59106774  0.79716521    -0.02840
Br307      Br  0.53092902  0.51549749  0.77375460    -0.01390
Br308      Br  0.49077429  0.54406182  0.90742414    -0.01460
Br309      Br  0.68795243  0.75187524  0.81727178    -0.01420
Br310      Br  0.60441702  0.74473730  0.91799904    -0.01400
C311        C  0.29962126  0.38440186  0.36141474    -0.02530
C312        C  0.28706835  0.33318837  0.32979234     0.07150
C313        C  0.24069993  0.28161707  0.35124599    -0.02640
C314        C  0.20845311  0.28142719  0.40218742    -0.02640
C315        C  0.22172710  0.33366918  0.43558718     0.07290
C316        C  0.27337882  0.38278844  0.41724232    -0.02840
Br317      Br  0.32059283  0.44222148  0.47436625    -0.01390
Br318      Br  0.35075480  0.45913106  0.32899843    -0.01460
Br319      Br  0.15662701  0.20405282  0.42703175    -0.01420
Br320      Br  0.21500644  0.21053818  0.30536340    -0.01400
C321        C  0.38879346  0.30462499  0.38714857    -0.02530
C322        C  0.35656831  0.27313048  0.33487732     0.07150
C323        C  0.33582659  0.21271247  0.33369533    -0.02640
C324        C  0.34273709  0.18516501  0.38480829    -0.02640
C325        C  0.38527614  0.21722176  0.42896804     0.07290
C326        C  0.40972325  0.27813098  0.42866303    -0.02840
Br327      Br  0.47843672  0.32669725  0.47534883    -0.01390
Br328      Br  0.41846712  0.38692991  0.39480475    -0.01460
Br329      Br  0.29136696  0.10364377  0.39566527    -0.01420
Br330      Br  0.30288906  0.16616339  0.26143495    -0.01400
C331        C  0.37945986  0.44464414  0.14602929    -0.02530
C332        C  0.32832337  0.44121847  0.12205145     0.07150
C333        C  0.27518133  0.39577487  0.14257353    -0.02640
C334        C  0.27362988  0.35979621  0.19069239    -0.02640
C335        C  0.32469015  0.36901715  0.22072783     0.07290
C336        C  0.37753670  0.41248749  0.19758447    -0.02840
Br337      Br  0.44906326  0.43328535  0.23776779    -0.01390
Br338      Br  0.45324020  0.48728718  0.10632886    -0.01460
Br339      Br  0.20023759  0.29479119  0.20972265    -0.01420
Br340      Br  0.20314570  0.37697318  0.10215834    -0.01400
C341        C  0.60780111  0.70847000  0.32297130    -0.02530
C342        C  0.62039851  0.66250674  0.32847305     0.07150
C343        C  0.62239168  0.64583280  0.38935480    -0.02640
C344        C  0.63064309  0.68455077  0.43808693    -0.02640
C345        C  0.61630500  0.73059483  0.42942570     0.07290
C346        C  0.58780273  0.72420501  0.37359468    -0.02840
Br347      Br  0.50669493  0.67267313  0.37909303    -0.01390
Br348      Br  0.60872994  0.74745772  0.25012656    -0.01460
Br349      Br  0.66477468  0.66622186  0.50517884    -0.01420
Br350      Br  0.60660966  0.56877246  0.40924106    -0.01400
C351        C  0.74017557  0.67814695  0.35242502    -0.02530
C352        C  0.71429469  0.62648654  0.31675140     0.07150
C353        C  0.73539290  0.58786391  0.32999513    -0.02640
C354        C  0.76113073  0.58858521  0.38609208    -0.02640
C355        C  0.78162903  0.63677078  0.42541364     0.07290
C356        C  0.76996839  0.68156582  0.40811924    -0.02840
Br357      Br  0.79601701  0.74863796  0.45983180    -0.01390
Br358      Br  0.75043599  0.74923704  0.31722441    -0.01460
Br359      Br  0.77354039  0.52404976  0.40406150    -0.01420
Br360      Br  0.76751088  0.56401552  0.26703900    -0.01400
C361        C  0.47954935  0.60760744  0.20923508    -0.02530
C362        C  0.49298751  0.63296218  0.15074854     0.07150
C363        C  0.54728674  0.64443461  0.12796021    -0.02640
C364        C  0.58983651  0.64340928  0.16627998    -0.02640
C365        C  0.57667892  0.61780337  0.22463964     0.07290
C366        C  0.51893924  0.59621573  0.24316590    -0.02840
Br367      Br  0.49449537  0.55325558  0.31760532    -0.01390
Br368      Br  0.40698777  0.58741774  0.24338604    -0.01460
Br369      Br  0.66762436  0.69506542  0.14465285    -0.01420
Br370      Br  0.56702870  0.66131716  0.04383403    -0.01400
C371        C  0.35916346  0.10782922  0.61145353    -0.02530
C372        C  0.40682496  0.14423530  0.57468559     0.07150
C373        C  0.45609891  0.13830157  0.57778132    -0.02640
C374        C  0.45649559  0.09501493  0.61459149    -0.02640
C375        C  0.41148014  0.06273530  0.65720398     0.07290
C376        C  0.36140681  0.06792974  0.65228719    -0.02840
Br377      Br  0.29147002  0.01538030  0.69488083    -0.01390
Br378      Br  0.28700429  0.10663829  0.60234775    -0.01460
Br379      Br  0.50959767  0.07179888  0.58585300    -0.01420
Br380      Br  0.52315756  0.18681419  0.52848933    -0.01400
C381        C  0.33577841  0.94886636  0.60502232    -0.02530
C382        C  0.33730474  0.92896818  0.66460960     0.07150
C383        C  0.29658332  0.86852007  0.67238906    -0.02640
C384        C  0.26570053  0.83408074  0.62169989    -0.02640
C385        C  0.25451016  0.85978267  0.57066136     0.07290
C386        C  0.28433781  0.92008995  0.57029202    -0.02840
Br387      Br  0.24409137  0.95901815  0.54326952    -0.01390
Br388      Br  0.39631445  0.95257200  0.55861766    -0.01460
Br389      Br  0.24507475  0.75403023  0.62196078    -0.01420
Br390      Br  0.26728146  0.83108540  0.74861437    -0.01400
C391        C  0.40979348  0.88951230  0.74569307    -0.02530
C392        C  0.39433642  0.93137984  0.76314669     0.07150
C393        C  0.37055732  0.92424316  0.82169272    -0.02640
C394        C  0.36570242  0.87953974  0.86175320    -0.02640
C395        C  0.37661850  0.83448014  0.84253292     0.07290
C396        C  0.39508428  0.83900940  0.78134403    -0.02840
Br397      Br  0.38458681  0.77163979  0.73815878    -0.01390
Br398      Br  0.44454979  0.89742013  0.66797062    -0.01460
Br399      Br  0.33143572  0.87517261  0.93843860    -0.01420
Br400      Br  0.32663477  0.96150011  0.84013371    -0.01400
C401        C  0.83442152  0.09990484  0.60903182    -0.02530
C402        C  0.81297590  0.13021739  0.57272586     0.07150
C403        C  0.75808308  0.12043675  0.58933626    -0.02640
C404        C  0.73571955  0.09763742  0.64626926    -0.02640
C405        C  0.75016774  0.05960914  0.67590011     0.07290
C406        C  0.79996437  0.05968553  0.65441773    -0.02840
Br407      Br  0.82771245  0.01266061  0.69228234    -0.01390
Br408      Br  0.91128341  0.11298062  0.60216063    -0.01460
Br409      Br  0.68814886  0.12343876  0.68185356    -0.01420
Br410      Br  0.70196692  0.11841882  0.53312475    -0.01400
C411        C  0.65128564  0.93306791  0.60984068    -0.02530
C412        C  0.68278252  0.93245213  0.66243273     0.07150
C413        C  0.69428484  0.88699644  0.66798918    -0.02640
C414        C  0.65837037  0.83683835  0.63692043    -0.02640
C415        C  0.64005315  0.83874909  0.57635712     0.07290
C416        C  0.62970961  0.88596949  0.56703394    -0.02840
Br417      Br  0.56263342  0.87285368  0.52321406    -0.01390
Br418      Br  0.62092208  0.98569830  0.60663795    -0.01460
Br419      Br  0.60663679  0.77720468  0.69149958    -0.01420
Br420      Br  0.73721037  0.88154306  0.73597538    -0.01400
C421        C  0.59142650  0.87263052  0.76230700    -0.02530
C422        C  0.64823406  0.91983005  0.77323064     0.07150
C423        C  0.66908050  0.92722202  0.83456058    -0.02640
C424        C  0.63060375  0.89910916  0.88269217    -0.02640
C425        C  0.57371765  0.85678248  0.86991996     0.07290
C426        C  0.55824033  0.83856550  0.81020477    -0.02840
Br427      Br  0.49395220  0.76380253  0.79387414    -0.01390
Br428      Br  0.54760480  0.86013918  0.68831808    -0.01460
Br429      Br  0.65591369  0.91595106  0.96607698    -0.01420
Br430      Br  0.74961539  0.96915884  0.85439860    -0.01400
C431        C  0.43443621  0.06297744  0.40219112    -0.02530
C432        C  0.43490458  0.07352543  0.33963163     0.07150
C433        C  0.44037888  0.12892044  0.32586972    -0.02640
C434        C  0.44895779  0.16837295  0.37297403    -0.02640
C435        C  0.42560597  0.14811221  0.43053605     0.07290
C436        C  0.41762815  0.09242899  0.44287049    -0.02840
Br437      Br  0.35848457  0.04188175  0.48897639    -0.01390
Br438      Br  0.47334193  0.02521942  0.43542476    -0.01460
Br439      Br  0.51495216  0.24312261  0.36879653    -0.01420
Br440      Br  0.42568999  0.15168628  0.24839051    -0.01400
C441        C  0.36141964  0.90148713  0.39127520    -0.02530
C442        C  0.35950082  0.94112262  0.34729124     0.07150
C443        C  0.31140669  0.94988249  0.35155642    -0.02640
C444        C  0.26480757  0.91545171  0.39050606    -0.02640
C445        C  0.26560797  0.87384151  0.43117365     0.07290
C446        C  0.31663862  0.87061020  0.43356274    -0.02840
Br447      Br  0.32504128  0.82002869  0.49263042    -0.01390
Br448      Br  0.42493309  0.88809301  0.40198111    -0.01460
Br449      Br  0.20025189  0.92808451  0.38659504    -0.01420
Br450      Br  0.30632174  0.00823217  0.30257220    -0.01400
C451        C  0.43134115  0.89626219  0.24770650    -0.02530
C452        C  0.39973567  0.92638150  0.24467195     0.07150
C453        C  0.35474961  0.90263873  0.20033898    -0.02640
C454        C  0.35418082  0.86645225  0.15228440    -0.02640
C455        C  0.38074691  0.83178535  0.15972836     0.07290
C456        C  0.41407772  0.84379481  0.21366375    -0.02840
Br457      Br  0.41698254  0.78043139  0.25197933    -0.01390
Br458      Br  0.50231685  0.93007249  0.29078582    -0.01460
Br459      Br  0.30678705  0.85809465  0.08337766    -0.01420
Br460      Br  0.28564977  0.90617738  0.20972440    -0.01400
C461        C  0.69043036  0.88502824  0.41930437    -0.02530
C462        C  0.63540372  0.83736301  0.43043413     0.07150
C463        C  0.59099966  0.83676623  0.39351704    -0.02640
C464        C  0.60541044  0.87360728  0.34195215    -0.02640
C465        C  0.65954151  0.92652112  0.33844035     0.07290
C466        C  0.69490571  0.93457752  0.39032965    -0.02840
Br467      Br  0.68792709  0.97925187  0.45461554    -0.01390
Br468      Br  0.75982469  0.88414311  0.43550845    -0.01460
Br469      Br  0.55231654  0.83905874  0.27662814    -0.01420
Br470      Br  0.51019998  0.78897938  0.41099720    -0.01400
C471        C  0.72864251  0.08864994  0.37172044    -0.02530
C472        C  0.74820895  0.05547579  0.34129202     0.07860
C473        C  0.79487480  0.05235954  0.36631579    -0.02640
C474        C  0.81875541  0.08106639  0.42172895    -0.02640
C475        C  0.81252693  0.12945264  0.43777325     0.07290
C476        C  0.76584042  0.13265770  0.41141938    -0.02840
Br477      Br  0.75775750  0.20113765  0.41686015    -0.01390
Br478      Br  0.65144315  0.07119395  0.36237767    -0.01460
Br479      Br  0.85705541  0.05148122  0.47225575    -0.01420
Br480      Br  0.82386173  0.00751559  0.32666516    -0.01400
C481        C  0.62526694  0.86734397  0.14637173    -0.02530
C482        C  0.57739384  0.87279164  0.12729149     0.07150
C483        C  0.57445008  0.92237102  0.14716871    -0.02640
C484        C  0.61142662  0.95789812  0.19378593    -0.02640
C485        C  0.65055180  0.94340976  0.22228311     0.07290
C486        C  0.65986696  0.90050570  0.19554789    -0.02840
Br487      Br  0.71982544  0.88677683  0.22741322    -0.01390
Br488      Br  0.64788417  0.81927927  0.10231996    -0.01460
Br489      Br  0.60686515  0.02603304  0.21669151    -0.01420
Br490      Br  0.52123352  0.94478034  0.11212652    -0.01400
C491        C  0.64428596  0.46565458  0.20607886    -0.02530
C492        C  0.66806005  0.47756606  0.14748853     0.07150
C493        C  0.68955577  0.53601699  0.12712133    -0.02640
C494        C  0.69296928  0.57977594  0.16717226    -0.02640
C495        C  0.65864281  0.56500678  0.22006296     0.07290
C496        C  0.63190619  0.50546422  0.23634144    -0.02840
Br497      Br  0.58566360  0.47842104  0.30616650    -0.01390
Br498      Br  0.64464763  0.40504771  0.25378292    -0.01460
Br499      Br  0.76090877  0.65515739  0.16094219    -0.01420
Br500      Br  0.72121046  0.56161280  0.04760861    -0.01400
C501        C  0.44436985  0.30739018  0.23375249    -0.02530
C502        C  0.38851593  0.30031643  0.22375650     0.07150
C503        C  0.36754304  0.28852052  0.16249504    -0.02640
C504        C  0.40516831  0.29613776  0.11413315    -0.02640
C505        C  0.45931331  0.30194922  0.12673479     0.07290
C506        C  0.47481883  0.30052844  0.18663160    -0.02840
Br507      Br  0.53685455  0.28613522  0.20356553    -0.01390
Br508      Br  0.48918150  0.33933738  0.30541224    -0.01460
Br509      Br  0.38192480  0.29619080  0.03110486    -0.01420
Br510      Br  0.28715672  0.25120010  0.14340151    -0.01400
C511        C  0.47895918  0.34100755  0.81617949    -0.02530
C512        C  0.46146665  0.29569309  0.85765902     0.07150
C513        C  0.40300269  0.25184907  0.85311655    -0.02640
C514        C  0.36860394  0.25401779  0.80423429    -0.02640
C515        C  0.38693593  0.30696357  0.77226531     0.07290
C516        C  0.43867508  0.35433670  0.79277873    -0.02840
Br517      Br  0.43202672  0.39913665  0.85712170    -0.01390
Br518      Br  0.55437675  0.38147912  0.78821940    -0.01460
Br519      Br  0.30000114  0.18483121  0.78136522    -0.01420
Br520      Br  0.36779211  0.19355116  0.91429230    -0.01400
C521        C  0.69559897  0.53080696  0.75499163    -0.02530
C522        C  0.67258124  0.56742665  0.77321244     0.07150
C523        C  0.65641212  0.56066411  0.83518940    -0.02640
C524        C  0.64860434  0.51162120  0.86933517    -0.02640
C525        C  0.66572254  0.47215026  0.84667597     0.07290
C526        C  0.68558224  0.48074843  0.78697292    -0.02840
Br527      Br  0.70028124  0.42473079  0.74620427    -0.01390
Br528      Br  0.76857113  0.56098035  0.71734130    -0.01460
Br529      Br  0.60610775  0.49589034  0.94374149    -0.01420
Br530      Br  0.66689466  0.62561372  0.88251834    -0.01400
C531        C  0.46309228  0.07333392  0.18132028    -0.02530
C532        C  0.48183779  0.06917905  0.24094392     0.07150
C533        C  0.53655041  0.11698933  0.25878562    -0.02640
C534        C  0.56836901  0.16619444  0.22103057    -0.02640
C535        C  0.55081339  0.16768380  0.16060809     0.07290
C536        C  0.49618453  0.12173857  0.14311466    -0.02840
Br537      Br  0.45655257  0.13464999  0.07709899    -0.01390
Br538      Br  0.38507688  0.02528124  0.15680050    -0.01460
Br539      Br  0.62716745  0.23666040  0.25871376    -0.01420
Br540      Br  0.56604528  0.12248177  0.33968354    -0.01400
C541        C  0.71877792  0.08354451  0.11998292    -0.02530
C542        C  0.71490786  0.13315310  0.13488504     0.07150
C543        C  0.73138436  0.15604185  0.19315245    -0.02640
C544        C  0.74724783  0.12781289  0.23671424    -0.02640
C545        C  0.73687872  0.07036510  0.22755369     0.07290
C546        C  0.73344588  0.05456527  0.16537031    -0.02840
Br547      Br  0.76765021  0.00974708  0.13971518    -0.01390
Br548      Br  0.70284212  0.05490417  0.03800797    -0.01460
Br549      Br  0.81045157  0.18102087  0.28449125    -0.01420
Br550      Br  0.73948153  0.23025072  0.21190556    -0.01400
C551        C  0.65150469  0.03724693  0.80711496    -0.02530
C552        C  0.70619150  0.04964635  0.78415855     0.07150
C553        C  0.75562787  0.08957518  0.81739511    -0.02640
C554        C  0.75041104  0.11696530  0.86936374    -0.02640
C555        C  0.69795039  0.11461898  0.88179807     0.07290
C556        C  0.64750881  0.06968219  0.85526639    -0.02840
Br557      Br  0.57187478  0.04794650  0.88676747    -0.01390
Br558      Br  0.57933859  0.97790727  0.77547570    -0.01460
Br559      Br  0.81456657  0.15458940  0.92567559    -0.01420
Br560      Br  0.83167721  0.10709687  0.79531506    -0.01400
C561        C  0.51918169  0.09739073  0.75699015    -0.02530
C562        C  0.45862444  0.06961292  0.76154998     0.07150
C563        C  0.44013994  0.09305720  0.80842359    -0.02640
C564        C  0.47835687  0.12813629  0.85493967    -0.02640
C565        C  0.53812673  0.16099671  0.84545018     0.07290
C566        C  0.55734860  0.14682510  0.79248118    -0.02840
Br567      Br  0.63623356  0.19293958  0.76987654    -0.01390
Br568      Br  0.55156163  0.06317805  0.71057706    -0.01460
Br569      Br  0.44557406  0.12415039  0.93157351    -0.01420
Br570      Br  0.37050096  0.09616446  0.80375421    -0.01400
C571        C  0.93864591  0.56014160  0.86904611    -0.02530
C572        C  0.88459730  0.55650353  0.87647832     0.07150
C573        C  0.87594346  0.59917688  0.84762837    -0.02640
C574        C  0.91550071  0.63616329  0.80407989    -0.02640
C575        C  0.96105548  0.62830613  0.78319773     0.07290
C576        C  0.97414836  0.59135438  0.82005971    -0.02840
Br577      Br  0.03789446  0.57831664  0.81004824    -0.01390
Br578      Br  0.96784150  0.52736482  0.93011796    -0.01460
Br579      Br  0.91489202  0.70566877  0.78348651    -0.01420
Br580      Br  0.81456494  0.61284279  0.87191519    -0.01400
C581        C  0.87514985  0.39888484  0.80812919    -0.02530
C582        C  0.83906780  0.34648562  0.83818052     0.07150
C583        C  0.84982706  0.30101635  0.82791429    -0.02640
C584        C  0.90251153  0.31093118  0.80503890    -0.02640
C585        C  0.93986403  0.36285213  0.77460539     0.07290
C586        C  0.92579514  0.40742198  0.77725371    -0.02840
Br587      Br  0.96935675  0.47187804  0.72527567    -0.01390
Br588      Br  0.84105750  0.44520371  0.79062450    -0.01460
Br589      Br  0.92321703  0.25316702  0.82154633    -0.01420
Br590      Br  0.78544220  0.23213007  0.79901981    -0.01400
C591        C  0.93386523  0.31770342  0.16540892    -0.02530
C592        C  0.94675073  0.34683750  0.22304380     0.07150
C593        C  0.91038888  0.36967779  0.23830723    -0.02640
C594        C  0.87268232  0.37252249  0.19523552    -0.02640
C595        C  0.85072585  0.33534512  0.14569685     0.07290
C596        C  0.88577281  0.31077651  0.12817585    -0.02840
Br597      Br  0.87523405  0.27539144  0.04952434    -0.01390
Br598      Br  0.98846746  0.29848977  0.13084754    -0.01460
Br599      Br  0.90167507  0.44872226  0.16946725    -0.01420
Br600      Br  0.92000663  0.41411034  0.30956135    -0.01400
C601        C  0.91918698  0.60247644  0.11603191    -0.02530
C602        C  0.87247722  0.54785676  0.12949457     0.07150
C603        C  0.85774343  0.53214381  0.18991700    -0.02640
C604        C  0.89649089  0.56438477  0.23655587    -0.02640
C605        C  0.94553538  0.61947644  0.22457562     0.07290
C606        C  0.95312595  0.63995323  0.16350839    -0.02840
Br607      Br  0.00457128  0.72001280  0.14346004    -0.01390
Br608      Br  0.93519326  0.62624125  0.03240308    -0.01460
Br609      Br  0.88325867  0.52502156  0.31304093    -0.01420
Br610      Br  0.78881364  0.45959139  0.20751426    -0.01400
loop_ 
_geom_bond_atom_site_label_1 
_geom_bond_atom_site_label_2 
_geom_bond_distance 
_geom_bond_site_symmetry_2 
_ccdc_geom_bond_type 
O1           C28   1.279       .  A
O1          Mn27   2.119       .  S
C2           O35   1.261       .  A
C2           O32   1.280       .  A
C2          C602   1.475       .  S
O3          Mn10   2.219   1_556  S
O3          Mn21   2.153   1_556  S
O3          Mn25   2.187       .  S
O3          Mn27   2.140       .  S
O4           C14   1.271       .  A
O4          Mn38   2.103       .  S
O5           C28   1.269       .  A
O5          Mn21   2.108   1_556  S
O6           C33   1.270       .  A
O6          Mn25   2.157       .  S
O7          Mn38   1.944       .  S
O7          Mn27   1.958       .  S
O7           C23   1.205       .  S
C8           O11   1.268       .  A
C8          C582   1.529       .  S
C8           O34   1.224       .  S
O9          Mn29   2.141       .  S
O9          Mn10   2.187   1_556  S
O9          Mn43   2.159   1_556  S
O9          Mn25   2.190       .  S
Mn10         O39   2.236       .  S
Mn10         O15   2.161       .  S
Mn10         O42   2.206       .  S
Mn10         O16   2.171   1_554  S
O11         Mn25   2.178       .  S
O12          C14   1.269       .  A
O12         Mn19   2.071       .  S
C13          O39   1.285       .  A
C13         C595   1.564       .  S
C13          O26   1.215       .  S
C14         C572   1.509       .  S
O15          C40   1.269       .  A
O16         Mn19   2.138       .  S
O16         Mn38   2.150       .  S
O16         Mn25   2.187       .  S
O17         Mn21   1.986       .  S
O17         Mn43   1.952       .  S
O17          C40   1.225       .  S
C18          O44   1.271       .  A
C18          O20   1.261       .  A
C18         C555   1.487       .  S
Mn19         O32   2.120   1_556  S
Mn19         O34   1.986       .  S
Mn19         O26   1.989   1_556  S
O20         Mn43   2.054   1_556  S
Mn21         O37   2.094       .  S
Mn21         O31   1.977   1_554  S
O22          C24   1.272       .  A
O22         Mn27   2.102   1_554  S
C23          O41   1.267       .  A
C23         C525   1.521       .  S
C24          O37   1.268       .  A
C24         C505   1.480       .  S
Mn25         O41   2.173       .  S
O26         Mn29   1.961   1_554  S
Mn27         O45   1.978   1_556  S
C28         C512   1.499       .  S
Mn29         O36   2.114   1_556  S
Mn29         O44   2.079       .  S
Mn29         O34   1.994       .  S
C30          O36   1.273       .  A
C30          O46   1.272       .  A
C30         C542   1.483       .  S
O31         Mn43   1.989   1_556  S
O31          C33   1.229       .  S
C33         C565   1.536       .  S
O35         Mn38   2.064   1_554  S
Mn38         O45   1.965   1_556  S
C40         C535   1.540       .  S
O42          C47   1.278       .  A
Mn43         O46   2.100       .  S
O45          C47   1.216       .  S
C47         C492   1.543       .  S
C48          C49   1.404   1_545  D
C48         C472   1.482       .  S
C48         C545   1.567       .  S
C49         C465   1.588       .  S
C49         C485   1.498       .  S
C50          C51   1.450   1_545  D
C50         C432   1.555       .  S
C50         C532   1.561       .  S
C51         C442   1.568       .  S
C51         C452   1.577       .  S
C52          C53   1.383   1_565  D
C52         C412   1.507       .  S
C52         C422   1.545       .  S
C53         C405   1.537       .  S
C53         C552   1.522       .  S
C54          C55   1.432   1_565  D
C54         C382   1.578       .  S
C54         C392   1.546       .  S
C55         C375   1.529       .  S
C55         C562   1.567       .  S
C56          C57   1.429       .  D
C56         C352   1.571       .  S
C56         C495   1.552       .  S
C57         C342   1.542       .  S
C57         C365   1.551       .  S
C58          C59   1.401       .  D
C58         C322   1.517       .  S
C58         C502   1.545       .  S
C59         C312   1.538       .  S
C59         C335   1.518       .  S
C60          C61   1.430       .  D
C60         C292   1.511       .  S
C60         C522   1.582       .  S
C61         C282   1.555       .  S
C61         C305   1.556       .  S
C62          C63   1.385       .  D
C62         C265   1.533       .  S
C62         C515   1.530       .  S
C63         C255   1.517       .  S
C63         C275   1.481       .  S
C64          C65   1.412       .  D
C64         C345   1.581       .  S
C64         C462   1.542       .  S
C65         C285   1.492       .  S
C65         C415   1.574       .  S
C66          C67   1.446   1_655  D
C66         C232   1.565       .  S
C66         C592   1.559       .  S
C67         C225   1.522       .  S
C67         C242   1.607       .  S
C68          C69   1.394   1_655  D
C68         C205   1.509       .  S
C68         C605   1.527       .  S
C69         C195   1.520       .  S
C69         C212   1.520       .  S
C70          C71   1.396   1_655  D
C70         C172   1.555       .  S
C70         C575   1.552       .  S
C71         C162   1.512       .  S
C71         C182   1.517       .  S
C72          C73   1.437   1_655  D
C72         C142   1.563       .  S
C72         C585   1.534       .  S
C73         C135   1.519       .  S
C73         C155   1.599       .  S
C74          C75   1.406       .  D
C74         C192   1.520       .  S
C74         C445   1.545       .  S
C75         C165   1.530       .  S
C75         C385   1.524       .  S
C76          C77   1.429       .  D
C76         C132   1.614       .  S
C76         C252   1.485       .  S
C77         C222   1.515       .  S
C77         C315   1.579       .  S
C78          C79   1.412       .  D
C78         C235   1.580       .  S
C78         C475   1.504       .  S
C79         C145   1.517       .  S
C79         C402   1.548       .  S
C80          C81   1.403       .  D
C80         C202   1.549       .  S
C80         C355   1.527       .  S
C81         C175   1.518       .  S
C81         C295   1.549       .  S
C82          C83   1.409       .  D
C82         C325   1.511       .  S
C82         C435   1.566       .  S
C83         C262   1.531       .  S
C83         C372   1.500       .  S
O84         C111   1.260       .  A
O84        Mn110   2.057   1_554  S
C85         O118   1.260       .  A
C85         O115   1.268       .  A
C85         C425   1.477       .  S
O86         Mn93   2.166       .  S
O86        Mn104   2.156       .  S
O86        Mn108   2.192   1_556  S
O86        Mn110   2.128       .  S
O87          C97   1.275       .  A
O87        Mn121   2.108       .  S
O88         C111   1.269       .  A
O88        Mn104   2.093   1_554  S
O89         C116   1.273       .  A
O89        Mn108   2.185       .  S
O90        Mn121   1.963       .  S
O90        Mn110   1.952   1_554  S
O90         C106   1.209       .  S
C91          O94   1.278       .  A
C91         C455   1.560       .  S
C91         O117   1.231       .  S
O92        Mn112   2.155   1_556  S
O92         Mn93   2.221       .  S
O92        Mn126   2.146       .  S
O92        Mn108   2.191   1_556  S
Mn93        O122   2.187       .  S
Mn93         O98   2.231       .  S
Mn93        O125   2.270       .  S
Mn93         O99   2.192       .  S
O94        Mn108   2.196       .  S
O95          C97   1.262       .  A
O95        Mn102   2.065   1_554  S
C96         O122   1.276       .  A
C96         C395   1.559       .  S
C96         O109   1.234       .  S
C97         C482   1.500       .  S
O98         C123   1.282       .  A
O99        Mn102   2.167       .  S
O99        Mn121   2.122   1_556  S
O99        Mn108   2.189   1_556  S
O100       Mn104   1.973       .  S
O100       Mn126   1.949       .  S
O100        C123   1.220       .  S
C101        O127   1.280       .  A
C101        O103   1.260       .  A
C101        C215   1.498       .  S
Mn102       O115   2.095       .  S
Mn102       O117   1.998   1_556  S
Mn102       O109   1.953       .  S
O103       Mn126   2.057   1_554  S
Mn104       O120   2.075       .  S
Mn104       O114   1.958   1_556  S
O105        C107   1.268       .  A
O105       Mn110   2.094       .  S
C106        O124   1.273       .  A
C106        C362   1.549       .  S
C107        O120   1.266       .  A
C107        C272   1.472       .  S
Mn108       O124   2.220       .  S
O109       Mn112   1.991   1_556  S
Mn110       O128   1.967       .  S
C111        C332   1.500       .  S
Mn112       O119   2.065   1_554  S
Mn112       O127   2.143       .  S
Mn112       O117   1.989       .  S
C113        O119   1.259       .  A
C113        O129   1.266       .  A
C113        C185   1.460       .  S
O114       Mn126   1.965   1_554  S
O114        C116   1.221       .  S
C116        C245   1.540       .  S
O118       Mn121   2.083   1_556  S
Mn121       O128   1.993   1_554  S
C123        C152   1.569       .  S
O125        C130   1.293       .  A
Mn126       O129   2.091       .  S
O128        C130   1.213       .  S
C130        C302   1.582       .  S
C131        C132   1.468       .  A
C131        C136   1.417       .  A
C131       Br138   1.921       .  S
C132        C133   1.446       .  A
C133        C134   1.426       .  A
C133       Br140   1.889       .  S
C134        C135   1.410       .  A
C134       Br139   1.942       .  S
C135        C136   1.391       .  A
C136       Br137   1.962       .  S
C141        C142   1.439       .  A
C141        C146   1.421       .  A
C141       Br148   1.923       .  S
C142        C143   1.417       .  A
C143        C144   1.399       .  A
C143       Br150   1.905       .  S
C144        C145   1.395       .  A
C144       Br149   1.898       .  S
C145        C146   1.422       .  A
C146       Br147   1.934       .  S
C151        C152   1.413       .  A
C151        C156   1.439       .  A
C151       Br158   1.929       .  S
C152        C153   1.432       .  A
C153        C154   1.432       .  A
C153       Br160   1.915       .  S
C154        C155   1.428       .  A
C154       Br159   1.916       .  S
C155        C156   1.450       .  A
C156       Br157   1.916       .  S
C161        C162   1.408       .  A
C161        C166   1.384       .  A
C161       Br168   1.933       .  S
C162        C163   1.426       .  A
C163        C164   1.424       .  A
C163       Br170   1.933       .  S
C164        C165   1.427       .  A
C164       Br169   1.921       .  S
C165        C166   1.418       .  A
C166       Br167   1.918       .  S
C171        C172   1.418       .  A
C171        C176   1.412       .  A
C171       Br178   1.879       .  S
C172        C173   1.425       .  A
C173        C174   1.416       .  A
C173       Br180   1.920       .  S
C174        C175   1.412       .  A
C174       Br179   1.922       .  S
C175        C176   1.411       .  A
C176       Br177   1.951       .  S
C181        C182   1.427       .  A
C181        C186   1.397       .  A
C181       Br188   1.919       .  S
C182        C183   1.429       .  A
C183        C184   1.410       .  A
C183       Br190   1.919       .  S
C184        C185   1.401       .  A
C184       Br189   1.933       .  S
C185        C186   1.392       .  A
C186       Br187   1.923       .  S
C191        C192   1.416       .  A
C191        C196   1.407       .  A
C191       Br198   1.913       .  S
C192        C193   1.426       .  A
C193        C194   1.404       .  A
C193       Br200   1.921       .  S
C194        C195   1.415       .  A
C194       Br199   1.939       .  S
C195        C196   1.416       .  A
C196       Br197   1.925       .  S
C201        C202   1.420       .  A
C201        C206   1.392       .  A
C201       Br208   1.916       .  S
C202        C203   1.437       .  A
C203        C204   1.421       .  A
C203       Br210   1.910       .  S
C204        C205   1.417       .  A
C204       Br209   1.942   1_655  S
C205        C206   1.405       .  A
C206       Br207   1.932       .  S
C211        C212   1.413       .  A
C211        C216   1.409       .  A
C211       Br218   1.911       .  S
C212        C213   1.417       .  A
C213        C214   1.396       .  A
C213       Br220   1.913       .  S
C214        C215   1.396       .  A
C214       Br219   1.905       .  S
C215        C216   1.420       .  A
C216       Br217   1.922       .  S
C221        C222   1.398       .  A
C221        C226   1.395       .  A
C221       Br228   1.883       .  S
C222        C223   1.431       .  A
C223        C224   1.419       .  A
C223       Br230   1.927       .  S
C224        C225   1.419       .  A
C224       Br229   1.940       .  S
C225        C226   1.407       .  A
C226       Br227   1.912       .  S
C231        C232   1.415       .  A
C231        C236   1.422       .  A
C231       Br238   1.937       .  S
C232        C233   1.428       .  A
C233        C234   1.426       .  A
C233       Br240   1.925   1_655  S
C234        C235   1.431       .  A
C234       Br239   1.908       .  S
C235        C236   1.440       .  A
C236       Br237   1.919       .  S
C241        C242   1.454       .  A
C241        C246   1.419       .  A
C241       Br248   1.922       .  S
C242        C243   1.434       .  A
C243        C244   1.425       .  A
C243       Br250   1.888       .  S
C244        C245   1.421       .  A
C244       Br249   1.911       .  S
C245        C246   1.402       .  A
C246       Br247   1.916       .  S
C251        C252   1.405       .  A
C251        C256   1.383       .  A
C251       Br258   1.948       .  S
C252        C253   1.427       .  A
C253        C254   1.416       .  A
C253       Br260   1.931       .  S
C254        C255   1.411       .  A
C254       Br259   1.929       .  S
C255        C256   1.423       .  A
C256       Br257   1.935       .  S
C261        C262   1.435       .  A
C261        C266   1.401       .  A
C261       Br268   1.914       .  S
C262        C263   1.433       .  A
C263        C264   1.407       .  A
C263       Br270   1.924       .  S
C264        C265   1.402       .  A
C264       Br269   1.914       .  S
C265        C266   1.388       .  A
C266       Br267   1.915       .  S
C271        C272   1.408       .  A
C271        C276   1.404       .  A
C271       Br278   1.924       .  S
C272        C273   1.415       .  A
C273        C274   1.407       .  A
C273       Br280   1.930       .  S
C274        C275   1.407       .  A
C274       Br279   1.924       .  S
C275        C276   1.414       .  A
C276       Br277   1.927       .  S
C281        C282   1.437       .  A
C281        C286   1.402       .  A
C281       Br288   1.900       .  S
C282        C283   1.433       .  A
C283        C284   1.422       .  A
C283       Br290   1.901       .  S
C284        C285   1.405       .  A
C284       Br289   1.929       .  S
C285        C286   1.409       .  A
C286       Br287   1.941       .  S
C291        C292   1.406       .  A
C291        C296   1.427       .  A
C291       Br298   1.925       .  S
C292        C293   1.392       .  A
C293        C294   1.404       .  A
C293       Br300   1.940       .  S
C294        C295   1.428       .  A
C294       Br299   1.915       .  S
C295        C296   1.437       .  A
C296       Br297   1.911       .  S
C301        C302   1.431       .  A
C301        C306   1.435       .  A
C301       Br308   1.914       .  S
C302        C303   1.426       .  A
C303        C304   1.429       .  A
C303       Br310   1.910       .  S
C304        C305   1.422       .  A
C304       Br309   1.919       .  S
C305        C306   1.417       .  A
C306       Br307   1.920       .  S
C311        C312   1.413       .  A
C311        C316   1.415       .  A
C311       Br318   1.913       .  S
C312        C313   1.406       .  A
C313        C314   1.424       .  A
C313       Br320   1.942       .  S
C314        C315   1.451       .  A
C314       Br319   1.910       .  S
C315        C316   1.419       .  A
C316       Br317   1.918       .  S
C321        C322   1.428       .  A
C321        C326   1.419       .  A
C321       Br328   1.929       .  S
C322        C323   1.415       .  A
C323        C324   1.398       .  A
C323       Br330   1.934       .  S
C324        C325   1.411       .  A
C324       Br329   1.925       .  S
C325        C326   1.414       .  A
C326       Br327   1.932       .  S
C331        C332   1.423       .  A
C331        C336   1.403       .  A
C331       Br338   1.947       .  S
C332        C333   1.417       .  A
C333        C334   1.410       .  A
C333       Br340   1.944       .  S
C334        C335   1.420       .  A
C334       Br339   1.923       .  S
C335        C336   1.415       .  A
C336       Br337   1.918       .  S
C341        C342   1.421       .  A
C341        C346   1.395       .  A
C341       Br348   1.899       .  S
C342        C343   1.418       .  A
C343        C344   1.427       .  A
C343       Br350   1.923       .  S
C344        C345   1.462       .  A
C344       Br349   1.911       .  S
C345        C346   1.404       .  A
C346       Br347   1.921       .  S
C351        C352   1.427       .  A
C351        C356   1.433       .  A
C351       Br358   1.928       .  S
C352        C353   1.421       .  A
C353        C354   1.402       .  A
C353       Br360   1.908       .  S
C354        C355   1.411       .  A
C354       Br359   1.937       .  S
C355        C356   1.419       .  A
C356       Br357   1.930       .  S
C361        C362   1.417       .  A
C361        C366   1.434       .  A
C361       Br368   1.910       .  S
C362        C363   1.430       .  A
C363        C364   1.420       .  A
C363       Br370   1.923       .  S
C364        C365   1.416       .  A
C364       Br369   1.913       .  S
C365        C366   1.426       .  A
C366       Br367   1.922       .  S
C371        C372   1.424       .  A
C371        C376   1.409       .  A
C371       Br378   1.927       .  S
C372        C373   1.406       .  A
C373        C374   1.407       .  A
C373       Br380   1.957       .  S
C374        C375   1.441       .  A
C374       Br379   1.923       .  S
C375        C376   1.418       .  A
C376       Br377   1.950       .  S
C381        C382   1.420       .  A
C381        C386   1.417       .  A
C381       Br388   1.891       .  S
C382        C383   1.440       .  A
C383        C384   1.416       .  A
C383       Br390   1.917       .  S
C384        C385   1.415       .  A
C384       Br389   1.914       .  S
C385        C386   1.393       .  A
C386       Br387   1.913       .  S
C391        C392   1.420       .  A
C391        C396   1.431       .  A
C391       Br398   1.921       .  S
C392        C393   1.416       .  A
C393        C394   1.430       .  A
C393       Br400   1.922       .  S
C394        C395   1.431       .  A
C394       Br399   1.909       .  S
C395        C396   1.426       .  A
C396       Br397   1.922       .  S
C401        C402   1.433       .  A
C401        C406   1.427       .  A
C401       Br408   1.922       .  S
C402        C403   1.416       .  A
C403        C404   1.398       .  A
C403       Br410   1.915       .  S
C404        C405   1.402       .  A
C404       Br409   1.898       .  S
C405        C406   1.421       .  A
C406       Br407   1.922       .  S
C411        C412   1.429       .  A
C411        C416   1.438       .  A
C411       Br418   1.933       .  S
C412        C413   1.389       .  A
C413        C414   1.377       .  A
C413       Br420   1.924       .  S
C414        C415   1.424       .  A
C414       Br419   1.934       .  S
C415        C416   1.424       .  A
C416       Br417   1.904       .  S
C421        C422   1.435       .  A
C421        C426   1.395       .  A
C421       Br428   1.927       .  S
C422        C423   1.431       .  A
C423        C424   1.417       .  A
C423       Br430   1.924       .  S
C424        C425   1.404       .  A
C424       Br429   1.925       .  S
C425        C426   1.388       .  A
C426       Br427   1.913       .  S
C431        C432   1.403       .  A
C431        C436   1.407       .  A
C431       Br438   1.905       .  S
C432        C433   1.435       .  A
C433        C434   1.411       .  A
C433       Br440   1.907       .  S
C434        C435   1.404       .  A
C434       Br439   1.903       .  S
C435        C436   1.411       .  A
C436       Br437   1.811       .  S
C441        C442   1.446       .  A
C441        C446   1.426       .  A
C441       Br448   1.915       .  S
C442        C443   1.423       .  A
C443        C444   1.424       .  A
C443       Br450   1.941   1_565  S
C444        C445   1.427       .  A
C444       Br449   1.919       .  S
C445        C446   1.413       .  A
C446       Br447   1.954       .  S
C451        C452   1.424       .  A
C451        C456   1.442       .  A
C451       Br458   1.898       .  S
C452        C453   1.424       .  A
C453        C454   1.427       .  A
C453       Br460   1.914       .  S
C454        C455   1.422       .  A
C454       Br459   1.907       .  S
C455        C456   1.416       .  A
C456       Br457   1.913       .  S
C461        C462   1.416       .  A
C461        C466   1.411       .  A
C461       Br468   1.901       .  S
C462        C463   1.426       .  A
C463        C464   1.423       .  A
C463       Br470   1.939       .  S
C464        C465   1.442       .  A
C464       Br469   1.899       .  S
C465        C466   1.422       .  A
C466       Br467   1.920       .  S
C471        C472   1.403       .  A
C471        C476   1.400       .  A
C471       Br478   1.893       .  S
C472        C473   1.399       .  A
C473        C474   1.409       .  A
C473       Br480   1.929       .  S
C474        C475   1.421       .  A
C474       Br479   1.914       .  S
C475        C476   1.412       .  A
C476       Br477   1.938       .  S
C481        C482   1.418       .  A
C481        C486   1.409       .  A
C481       Br488   1.930       .  S
C482        C483   1.427       .  A
C483        C484   1.409       .  A
C483       Br490   1.946       .  S
C484        C485   1.421       .  A
C484       Br489   1.941   1_565  S
C485        C486   1.413       .  A
C486       Br487   1.937       .  S
C491        C492   1.411       .  A
C491        C496   1.424       .  A
C491       Br498   1.921       .  S
C492        C493   1.435       .  A
C493        C494   1.427       .  A
C493       Br500   1.926       .  S
C494        C495   1.424       .  A
C494       Br499   1.938       .  S
C495        C496   1.423       .  A
C496       Br497   1.892       .  S
C501        C502   1.428       .  A
C501        C506   1.395       .  A
C501       Br508   1.900       .  S
C502        C503   1.429       .  A
C503        C504   1.421       .  A
C503       Br510   1.918       .  S
C504        C505   1.406       .  A
C504       Br509   1.923       .  S
C505        C506   1.383       .  A
C506       Br507   1.913       .  S
C511        C512   1.395       .  A
C511        C516   1.384       .  A
C511       Br518   1.873       .  S
C512        C513   1.422       .  A
C513        C514   1.427       .  A
C513       Br520   1.918       .  S
C514        C515   1.426       .  A
C514       Br519   1.914       .  S
C515        C516   1.407       .  A
C516       Br517   1.919       .  S
C521        C522   1.445       .  A
C521        C526   1.407       .  A
C521       Br528   1.911       .  S
C522        C523   1.421       .  A
C523        C524   1.425       .  A
C523       Br530   1.915       .  S
C524        C525   1.429       .  A
C524       Br529   1.932       .  S
C525        C526   1.400       .  A
C526       Br527   1.942       .  S
C531        C532   1.422       .  A
C531        C536   1.426       .  A
C531       Br538   1.908       .  S
C532        C533   1.439       .  A
C533        C534   1.427       .  A
C533       Br540   1.916       .  S
C534        C535   1.412       .  A
C534       Br539   1.935       .  S
C535        C536   1.418       .  A
C536       Br537   1.916       .  S
C541        C542   1.411       .  A
C541        C546   1.423       .  A
C541       Br548   1.921       .  S
C542        C543   1.392       .  A
C543        C544   1.399       .  A
C543       Br550   1.918       .  S
C544        C545   1.424       .  A
C544       Br549   1.892       .  S
C545        C546   1.422       .  A
C546       Br547   1.915       .  S
C551        C552   1.434       .  A
C551        C556   1.407       .  A
C551       Br558   1.919   1_545  S
C552        C553   1.419       .  A
C553        C554   1.403       .  A
C553       Br560   1.924       .  S
C554        C555   1.407       .  A
C554       Br559   1.937       .  S
C555        C556   1.410       .  A
C556       Br557   1.951       .  S
C561        C562   1.419       .  A
C561        C566   1.430       .  A
C561       Br568   1.852       .  S
C562        C563   1.422       .  A
C563        C564   1.416       .  A
C563       Br570   1.910       .  S
C564        C565   1.415       .  A
C564       Br569   1.892       .  S
C565        C566   1.407       .  A
C566       Br567   1.922       .  S
C571        C572   1.416       .  A
C571        C576   1.414       .  A
C571       Br578   1.952       .  S
C572        C573   1.410       .  A
C573        C574   1.415       .  A
C573       Br580   1.934       .  S
C574        C575   1.419       .  A
C574       Br579   1.905       .  S
C575        C576   1.438       .  A
C576       Br577   1.919   1_655  S
C581        C582   1.411       .  A
C581        C586   1.441       .  A
C581       Br588   1.894       .  S
C582        C583   1.392       .  A
C583        C584   1.404       .  A
C583       Br590   1.897       .  S
C584        C585   1.415       .  A
C584       Br589   1.902       .  S
C585        C586   1.409       .  A
C586       Br587   1.911       .  S
C591        C592   1.436       .  A
C591        C596   1.452       .  A
C591       Br598   1.937       .  S
C592        C593   1.422       .  A
C593        C594   1.405       .  A
C593       Br600   1.904       .  S
C594        C595   1.389       .  A
C594       Br599   1.863       .  S
C595        C596   1.440       .  A
C596       Br597   1.924       .  S
C601        C602   1.406       .  A
C601        C606   1.415       .  A
C601       Br608   1.928       .  S
C602        C603   1.395       .  A
C603        C604   1.403       .  A
C603       Br610   1.945       .  S
C604        C605   1.431       .  A
C604       Br609   1.921       .  S
C605        C606   1.427       .  A
C606       Br607   1.932   1_655  S
