geometry optimzed in LAMMPS
_audit_creation_date              2020-11-30 
_audit_creation_method            'lammps2cif' 
_symmetry_space_group_name_H-M    'P1' 
_symmetry_Int_Tables_number       1 
_symmetry_cell_setting            triclinic 
loop_ 
_symmetry_equiv_pos_as_xyz 
  x,y,z 
_cell_length_a                    32.94515989 
_cell_length_b                    32.95623337964456 
_cell_length_c                    41.67003700715693 
_cell_angle_alpha                 89.85717715882916 
_cell_angle_beta                  90.13122892059728 
_cell_angle_gamma                 120.32188746545083 
loop_ 
_atom_site_label 
_atom_site_type_symbol 
_atom_site_fract_x 
_atom_site_fract_y 
_atom_site_fract_z 
_atom_site_charge 
O1          O  0.64460123  0.25545403  0.45676144    -0.83500
O2          O  0.73781793  0.31163883  0.47413809    -0.80500
C3          C  0.75356125  0.34603661  0.45482990     1.00000
O4          O  0.73961255  0.37533512  0.45683657    -0.80500
O5          O  0.68435585  0.41408156  0.47380468    -0.83200
C6          C  0.64878209  0.39599128  0.45553781     1.04500
O7          O  0.61872261  0.35282437  0.45767337    -0.75900
O8          O  0.58215784  0.25882578  0.47098700    -0.76100
C9          C  0.60203350  0.24343046  0.45262058     1.04500
O10         O  0.61824229  0.23426711  0.52265366    -0.83500
O11         O  0.70902977  0.29804243  0.54032803    -0.80500
C12         C  0.74738616  0.33613178  0.54332770     1.00000
O13         O  0.75816721  0.36950465  0.52376264    -0.80500
O14         O  0.69656158  0.39946876  0.53999692    -0.83100
C15         C  0.65779015  0.39778869  0.54419201     1.04500
O16         O  0.62359742  0.37343073  0.52543700    -0.76000
O17         O  0.59320638  0.28071525  0.53885298    -0.76100
C18         C  0.59418465  0.24314324  0.54192316     1.04500
Cr19       Cr  0.67668845  0.27874792  0.49842125     1.93700
Cr20       Cr  0.71579780  0.38504041  0.49843415     1.93200
Cr21       Cr  0.60892432  0.31712612  0.49820521     1.39100
O22         O  0.66698051  0.32699527  0.49813248    -1.21200
N23         N  0.24051567  0.23397119  0.04963650    -0.34700
N24         N  0.27716861  0.19677878  0.00182527    -0.55300
N25         N  0.22762486  0.21546493  0.95194076    -0.34700
N26         N  0.18654224  0.24812828  0.99977423    -0.55300
C27         C  0.25643223  0.21137233  0.06848628     0.28900
C28         C  0.21032551  0.24094484  0.06747610     0.28900
C29         C  0.23911992  0.18611064  0.93704519     0.28900
C30         C  0.19142007  0.21406044  0.93549695     0.28900
C31         C  0.30416807  0.20070206  0.02739367     0.37500
C32         C  0.29981406  0.19427445  0.97560596     0.37500
C33         C  0.18074669  0.27157828  0.02432585     0.37500
C34         C  0.17362774  0.26149274  0.97266476     0.37500
C35         C  0.23667220  0.20454957  0.09877380    -0.20000
C36         C  0.20759478  0.22321680  0.09814322    -0.20000
C37         C  0.20877404  0.16479135  0.91133812    -0.20000
C38         C  0.17927134  0.18311148  0.91003130    -0.20000
C39         C  0.34447406  0.20120319  0.01758083    -0.21100
C40         C  0.34245203  0.19858248  0.98460919    -0.21100
C41         C  0.16399350  0.29985123  0.01275003    -0.21100
C42         C  0.15954908  0.29352372  0.98004113    -0.21000
C43         C  0.29006211  0.19889971  0.05945526    -0.16400
C44         C  0.18707401  0.26499363  0.05722533    -0.16400
C45         C  0.17164237  0.24270434  0.94175460    -0.16400
C46         C  0.27889283  0.18171894  0.94473070    -0.16400
H47         H  0.24283079  0.18819154  0.11931146     0.16500
H48         H  0.18679123  0.22364251  0.11806000     0.16500
H49         H  0.20853703  0.13946598  0.89474798     0.16500
H50         H  0.15204952  0.17472288  0.89234348     0.16500
H51         H  0.37220270  0.20309730  0.03262903     0.14800
H52         H  0.36850784  0.19791645  0.96921166     0.14800
H53         H  0.15547379  0.32239302  0.02647325     0.14800
H54         H  0.14695101  0.31026674  0.96365736     0.14800
H55         H  0.25281049  0.24778752  0.02689607     0.28100
H56         H  0.24718228  0.23961688  0.96979959     0.28000
N57         N  0.76160073  0.98743172  0.94890110    -0.34700
N58         N  0.80069097  0.06155852  0.99746212    -0.55300
N59         N  0.76762499  0.99130012  0.04740372    -0.34700
N60         N  0.73299036  0.91715743  0.99902620    -0.55300
C61         C  0.78803108  0.02566442  0.93043600     0.28900
C62         C  0.75274428  0.94924772  0.93138493     0.28900
C63         C  0.79635910  0.03031150  0.06462632     0.28900
C64         C  0.75935947  0.95375101  0.06548802     0.28900
C65         C  0.80630831  0.08794676  0.97119658     0.37500
C66         C  0.81058116  0.09020157  0.02306767     0.37500
C67         C  0.71258748  0.88852915  0.97357283     0.37500
C68         C  0.71410707  0.89050236  0.02553145     0.37500
C69         C  0.79543117  0.01157453  0.90072706    -0.20000
C70         C  0.77315518  0.96336188  0.90133292    -0.20000
C71         C  0.80611728  0.01734314  0.09402486    -0.20000
C72         C  0.78285843  0.96906959  0.09455341    -0.20000
C73         C  0.81983210  0.13357090  0.98015460    -0.21100
C74         C  0.82262580  0.13500613  0.01305000    -0.21100
C75         C  0.68073979  0.84345362  0.98388940    -0.21100
C76         C  0.68148115  0.84474947  0.01685413    -0.21000
C77         C  0.80446475  0.07287138  0.93924609    -0.16400
C78         C  0.72492873  0.90190926  0.94125217    -0.16400
C79         C  0.72889605  0.90603063  0.05729908    -0.16400
C80         C  0.81237955  0.07725391  0.05513242    -0.16400
H81         H  0.81495835  0.03371088  0.88064991     0.16500
H82         H  0.77213050  0.94123692  0.88182308     0.16500
H83         H  0.82765960  0.04026873  0.11319366     0.16500
H84         H  0.78304225  0.94767865  0.11424063     0.16500
H85         H  0.82797934  0.16303580  0.96456130     0.14800
H86         H  0.83315571  0.16569233  0.02785224     0.14800
H87         H  0.65956930  0.81279790  0.96919667     0.14800
H88         H  0.66101090  0.81517541  0.03261406     0.14800
H89         H  0.74669779  0.98729131  0.97079850     0.28100
H90         H  0.75037827  0.99008174  0.02628213     0.28000
N91         N  0.99551223  0.79731133  0.04874985    -0.34700
N92         N  0.92090020  0.74779782  0.00196203    -0.55300
N93         N  0.99124344  0.78608389  0.95141719    -0.34700
N94         N  0.06622494  0.83080128  0.99797776    -0.55300
C95         C  0.95892264  0.76969069  0.06824167     0.28900
C96         C  0.03540401  0.81273371  0.06613545     0.28900
C97         C  0.95300504  0.75385237  0.93507138     0.28900
C98         C  0.02928413  0.79729958  0.93299530     0.28900
C99         C  0.89427759  0.74190177  0.02811488     0.37500
C100        C  0.89202807  0.73645522  0.97628958     0.37500
C101        C  0.09328631  0.85654546  0.02287177     0.37500
C102        C  0.09069753  0.85159240  0.97094557     0.37500
C103        C  0.97573083  0.76769749  0.09839061    -0.20000
C104        C  0.02396920  0.79467506  0.09703305    -0.20000
C105        C  0.96682192  0.74407852  0.90610003    -0.20000
C106        C  0.01502626  0.77122203  0.90489291    -0.20000
C107        C  0.84810612  0.72590497  0.01906873    -0.21100
C108        C  0.84670443  0.72254827  0.98618122    -0.21100
C109        C  0.13530875  0.89362973  0.01167980    -0.21100
C110        C  0.13350766  0.89074827  0.97875635    -0.21000
C111        C  0.91068844  0.74852540  0.06011756    -0.16400
C112        C  0.08149782  0.84547306  0.05558327    -0.16400
C113        C  0.07576737  0.83377503  0.93955347    -0.16400
C114        C  0.90581753  0.73661156  0.94420094    -0.16400
H115        H  0.95532592  0.74900251  0.11928885     0.16500
H116        H  0.04785946  0.80083634  0.11673880     0.16500
H117        H  0.94437218  0.72047464  0.88750790     0.16500
H118        H  0.03695907  0.77257626  0.88514457     0.16500
H119        H  0.81851638  0.71749345  0.03453199     0.14800
H120        H  0.81581873  0.71096072  0.97130919     0.14800
H121        H  0.16416792  0.92007640  0.02576649     0.14800
H122        H  0.16076953  0.91461242  0.96250646     0.14800
H123        H  0.99312513  0.80943415  0.02618229     0.28100
H124        H  0.99071911  0.80428574  0.97160914     0.28000
C125        C  0.97387238  0.35329800  0.28268720     0.04200
C126        C  0.02373394  0.37954236  0.28263859     0.04100
C127        C  0.04836648  0.37480725  0.25679949    -0.16400
C128        C  0.02505870  0.34358944  0.23146849     0.04200
C129        C  0.97521576  0.31659786  0.23157846     0.04100
C130        C  0.95039951  0.32247596  0.25692843    -0.16400
H131        H  0.91231398  0.30185507  0.25704637     0.06200
H132        H  0.08650179  0.39460016  0.25692911     0.06200
C133        C  0.61161447  0.63885341  0.28957375     0.04200
C134        C  0.63796730  0.61560827  0.29070839     0.04100
C135        C  0.66954340  0.62300698  0.26556654    -0.16400
C136        C  0.67642105  0.65377002  0.24012377     0.04200
C137        C  0.65125826  0.67809173  0.23970903     0.04100
C138        C  0.61851882  0.66953148  0.26399784    -0.16400
H139        H  0.59946722  0.68842881  0.26368646     0.06200
H140        H  0.68911299  0.60464314  0.26581499     0.06200
C141        C  0.96946068  0.34794379  0.71462866     0.04200
C142        C  0.01921790  0.37091600  0.71376658     0.04100
C143        C  0.04340308  0.36269524  0.73860484    -0.16400
C144        C  0.01906981  0.33199034  0.76411872     0.04200
C145        C  0.96943295  0.30889546  0.76449896     0.04100
C146        C  0.94539360  0.31745925  0.74014961    -0.16400
H147        H  0.90725155  0.29869157  0.74045875     0.06200
H148        H  0.08146949  0.38033242  0.73805214     0.06200
C149        C  0.63416478  0.60469412  0.71317462     0.04200
C150        C  0.61136107  0.63151587  0.71183424     0.04100
C151        C  0.61738689  0.66179042  0.73750548    -0.16400
C152        C  0.64636086  0.66692349  0.76371336     0.04200
C153        C  0.66943565  0.64066591  0.76489747     0.04100
C154        C  0.66276680  0.60968310  0.73978174    -0.16400
H155        H  0.68104341  0.59003741  0.74058050     0.06200
H156        H  0.60012850  0.68241284  0.73676878     0.06200
C157        C  0.39141512  0.01968487  0.71646820     0.04200
C158        C  0.35517970  0.97264544  0.71214948     0.04100
C159        C  0.31858705  0.95202051  0.73461188    -0.16400
C160        C  0.31769342  0.97632837  0.76200235     0.04200
C161        C  0.35667082  0.02238518  0.76810195     0.04100
C162        C  0.39303990  0.04282629  0.74511227    -0.16400
H163        H  0.42248827  0.07789655  0.74893598     0.06200
H164        H  0.29005375  0.91644727  0.73050991     0.06200
C165        C  0.35246239  0.97023076  0.28601424     0.04200
C166        C  0.38477916  0.01933496  0.28649688     0.04100
C167        C  0.38190992  0.04797282  0.26260135    -0.16400
C168        C  0.34834140  0.02900837  0.23804240     0.04200
C169        C  0.31799343  0.97975446  0.23634002     0.04100
C170        C  0.31994785  0.95109636  0.26057706    -0.16400
H171        H  0.29615801  0.91341657  0.25949399     0.06200
H172        H  0.40520906  0.08575010  0.26369591     0.06200
O173        O  0.25122617  0.63298025  0.54255449    -0.83500
O174        O  0.30347744  0.72681589  0.52554013    -0.80500
C175        C  0.33764214  0.74331728  0.54505419     1.00000
O176        O  0.36861956  0.73169752  0.54305398    -0.80500
O177        O  0.41181946  0.68099067  0.52685335    -0.83200
C178        C  0.39429062  0.64604186  0.54575935     1.04500
O179        O  0.35147500  0.61490851  0.54336951    -0.75900
O180        O  0.25713800  0.57259241  0.52695029    -0.76100
C181        C  0.23952227  0.59031685  0.54527088     1.04500
O182        O  0.23264838  0.60674040  0.47611390    -0.83500
O183        O  0.29215177  0.69963712  0.45916575    -0.80500
C184        C  0.32934068  0.73896156  0.45620501     1.00000
O185        O  0.36276188  0.75077581  0.47600243    -0.80500
O186        O  0.39719538  0.69285946  0.46023948    -0.83100
C187        C  0.39848648  0.65553354  0.45670313     1.04500
O188        O  0.37623460  0.62156103  0.47606546    -0.76000
O189        O  0.28357923  0.58682865  0.46046175    -0.76100
C190        C  0.24414485  0.58392828  0.45746638     1.04500
Cr191      Cr  0.27374209  0.66610193  0.50090534     1.93700
Cr192      Cr  0.38079935  0.71028335  0.50163372     1.93200
Cr193      Cr  0.31762455  0.60327816  0.50179642     1.39100
O194        O  0.32403253  0.65982571  0.50149875    -1.21200
C195        C  0.30474959  0.78929657  0.38083997     0.14600
C196        C  0.34068262  0.83676379  0.38216613     0.01500
C197        C  0.37298193  0.85161643  0.40766274     0.16500
C198        C  0.36970250  0.81985593  0.43130962     0.25900
C199        C  0.33343829  0.77231661  0.43036936    -0.40400
C200        C  0.30098241  0.75746655  0.40471900     0.33000
C201        C  0.34406322  0.87117227  0.35750890     0.01600
F202        F  0.40708109  0.89747200  0.41023917    -0.12700
F203        F  0.26571826  0.71203106  0.40246334    -0.13300
C204        C  0.30580801  0.87799016  0.35189980     0.16500
C205        C  0.30916531  0.91091137  0.32918168     0.25900
C206        C  0.35081922  0.93778992  0.31157479    -0.40400
C207        C  0.38922075  0.93124965  0.31723366     0.32900
C208        C  0.38590219  0.89829239  0.34002749     0.14600
F209        F  0.26539871  0.85338380  0.36890747    -0.12700
F210        F  0.42940044  0.95568334  0.29998482    -0.13200
F211        F  0.27177188  0.91701640  0.32456856    -0.15500
F212        F  0.42322306  0.89204384  0.34450498    -0.14100
F213        F  0.27350622  0.77355684  0.35616659    -0.14100
F214        F  0.40162637  0.83622756  0.45555485    -0.15500
C215        C  0.31411435  0.88701273  0.64254399     0.14600
C216        C  0.35243301  0.87981194  0.63848121     0.01500
C217        C  0.39279255  0.90550971  0.65759317     0.16500
C218        C  0.39418638  0.93662865  0.68096511     0.25900
C219        C  0.35558858  0.94327606  0.68526487    -0.40400
C220        C  0.31591787  0.91881408  0.66543242     0.33000
C221        C  0.34996969  0.84532746  0.61447604     0.01600
F222        F  0.43088614  0.90041618  0.65368032    -0.12700
F223        F  0.27872940  0.92560793  0.66836897    -0.13300
C224        C  0.33798738  0.84789810  0.58241773     0.16500
C225        C  0.33368542  0.81444959  0.56002095     0.25900
C226        C  0.34231198  0.77834102  0.56901830    -0.40400
C227        C  0.35522208  0.77615204  0.60085859     0.32900
C228        C  0.35854562  0.80907829  0.62350327     0.14600
F229        F  0.33113350  0.88332676  0.57263071    -0.12700
F230        F  0.36292490  0.74113095  0.61029245    -0.13200
F231        F  0.32229049  0.81810459  0.52922881    -0.15500
F232        F  0.36878291  0.80470507  0.65445183    -0.14100
F233        F  0.27421700  0.86210689  0.62502547    -0.14100
F234        F  0.43260784  0.95899759  0.70019029    -0.15500
C235        C  0.50087456  0.64815047  0.58254173     0.14600
C236        C  0.48548343  0.63157382  0.61387438     0.01500
C237        C  0.43915911  0.61870554  0.62253964     0.16500
C238        C  0.40916672  0.62288409  0.60041894     0.25900
C239        C  0.42514185  0.64062514  0.56935934    -0.40400
C240        C  0.47125899  0.65302510  0.56067312     0.33000
C241        C  0.51865994  0.63020550  0.63777524     0.01600
F242        F  0.42347348  0.60367109  0.65279352    -0.12700
F243        F  0.48743577  0.66897883  0.53063283    -0.13300
C244        C  0.56166900  0.67128725  0.64446333     0.16500
C245        C  0.59255513  0.67095953  0.66746436     0.25900
C246        C  0.58123715  0.62958407  0.68443148    -0.40400
C247        C  0.53861239  0.58828575  0.67751725     0.32900
C248        C  0.50763107  0.58854422  0.65436039     0.14600
F249        F  0.57303338  0.71236280  0.62954154    -0.12700
F250        F  0.52602622  0.54824123  0.69421713    -0.13200
F251        F  0.63331688  0.71150042  0.67369871    -0.15500
F252        F  0.46672362  0.54813449  0.64826514    -0.14100
F253        F  0.54469484  0.65933323  0.57297549    -0.14100
F254        F  0.36516313  0.61135997  0.60977610    -0.15500
C255        C  0.07509899  0.47591682  0.65721846     0.14600
C256        C  0.10318326  0.46485089  0.63792497     0.01500
C257        C  0.10176263  0.42191317  0.64287489     0.16500
C258        C  0.07414566  0.39142569  0.66736128     0.25900
C259        C  0.04689544  0.40290064  0.68709976    -0.40400
C260        C  0.04709518  0.44512932  0.68160380     0.33000
C261        C  0.13568657  0.49870080  0.61364094     0.01600
F262        F  0.12825190  0.41009109  0.62456233    -0.12700
F263        F  0.02115831  0.45709021  0.70039029    -0.13300
C264        C  0.17167714  0.54369881  0.62300705     0.16500
C265        C  0.20485680  0.57421689  0.60062093     0.25900
C266        C  0.20312140  0.55981556  0.56868595    -0.40400
C267        C  0.16642464  0.51535837  0.55914224     0.32900
C268        C  0.13280792  0.48523137  0.58134833     0.14600
F269        F  0.17587466  0.55729291  0.65414949    -0.12700
F270        F  0.16277440  0.50136932  0.52811894    -0.13200
F271        F  0.23991465  0.61694067  0.61046604    -0.15500
F272        F  0.09740751  0.44279091  0.57133938    -0.14100
F273        F  0.07485169  0.51655205  0.65240903    -0.14100
F274        F  0.07369398  0.35035540  0.67174085    -0.15500
C275        C  0.50036433  0.61549598  0.33202962     0.14600
C276        C  0.51847772  0.64224612  0.36015427     0.01500
C277        C  0.56727195  0.66544411  0.36578091     0.16500
C278        C  0.59735622  0.66180984  0.34371006     0.25900
C279        C  0.57925248  0.63556338  0.31544957    -0.40400
C280        C  0.53055714  0.61263510  0.30970613     0.33000
C281        C  0.48646011  0.64560910  0.38370992     0.01600
F282        F  0.58579949  0.69195762  0.39254188    -0.12700
F283        F  0.51245945  0.58840443  0.28203105    -0.13300
C284        C  0.45218168  0.60518820  0.39964344     0.16500
C285        C  0.42312453  0.60825172  0.42283052     0.25900
C286        C  0.42762147  0.65199909  0.43064451    -0.40400
C287        C  0.46093205  0.69229216  0.41363055     0.32900
C288        C  0.49012609  0.68907499  0.39055282     0.14600
F289        F  0.44750098  0.56266671  0.39319650    -0.12700
F290        F  0.46591922  0.73508327  0.41954088    -0.13200
F291        F  0.39043982  0.56813360  0.43750312    -0.15500
F292        F  0.52180906  0.72844926  0.37464270    -0.14100
F293        F  0.45357883  0.59360743  0.32563908    -0.14100
F294        F  0.64443266  0.68564451  0.34916174    -0.15500
C295        C  0.12997218  0.50142377  0.41437767     0.14600
C296        C  0.14650345  0.49213920  0.38589405     0.01500
C297        C  0.19521649  0.51216580  0.38141742     0.16500
C298        C  0.22693129  0.54189496  0.40466957     0.25900
C299        C  0.21052670  0.55231128  0.43287075    -0.40400
C300        C  0.16164294  0.53148999  0.43756361     0.33000
C301        C  0.11321035  0.46360338  0.36011704     0.01600
F302        F  0.21209540  0.50288808  0.35442428    -0.12700
F303        F  0.14436589  0.53975204  0.46476229    -0.13300
C304        C  0.11665968  0.48355430  0.32968942     0.16500
C305        C  0.08644084  0.45670391  0.30486613     0.25900
C306        C  0.05185324  0.40940993  0.31006118    -0.40400
C307        C  0.04796227  0.38962880  0.34067451     0.32900
C308        C  0.07827863  0.41655127  0.36553061     0.14600
F309        F  0.14945251  0.52921074  0.32404988    -0.12700
F310        F  0.01645176  0.34355185  0.34606645    -0.13200
F311        F  0.09134975  0.47674070  0.27554738    -0.15500
F312        F  0.07479141  0.39611527  0.39450733    -0.14100
F313        F  0.08309516  0.48227264  0.41937958    -0.14100
F314        F  0.27375442  0.56149691  0.39913826    -0.15500
C315        C  0.78389959  0.68025532  0.80930323     0.14600
C316        C  0.76905083  0.67359714  0.84145240     0.01500
C317        C  0.72083559  0.65240107  0.84828028     0.16500
C318        C  0.68802208  0.63892750  0.82333959     0.25900
C319        C  0.70303477  0.64774972  0.79118343    -0.40400
C320        C  0.75115178  0.66747736  0.78435973     0.33000
C321        C  0.80386400  0.68945754  0.86788037     0.01600
F322        F  0.70573143  0.64619344  0.87915746    -0.12700
F323        F  0.76658167  0.67604345  0.75354396    -0.13300
C324        C  0.83689219  0.73748499  0.87166169     0.16500
C325        C  0.86954489  0.75256680  0.89674622     0.25900
C326        C  0.86979789  0.71990785  0.91836215    -0.40400
C327        C  0.83688593  0.67188900  0.91461766     0.32900
C328        C  0.80401388  0.65677522  0.88957756     0.14600
F329        F  0.83706184  0.76980702  0.85130074    -0.12700
F330        F  0.83716040  0.63973356  0.93489840    -0.13200
F331        F  0.90098565  0.79915634  0.90010502    -0.15500
F332        F  0.77289438  0.61016248  0.88605368    -0.14100
F333        F  0.83021412  0.69954750  0.80212397    -0.14100
F334        F  0.64160164  0.61785129  0.83058436    -0.15500
C335        C  0.12948164  0.88968332  0.85894274     0.14600
C336        C  0.17291161  0.89110540  0.85975176     0.01500
C337        C  0.18425862  0.87359350  0.88717245     0.16500
C338        C  0.15253925  0.85424391  0.91273585     0.25900
C339        C  0.10971203  0.85396901  0.91220623    -0.40400
C340        C  0.09873324  0.87223914  0.88510352     0.33000
C341        C  0.20636259  0.91090781  0.83222935     0.01600
F342        F  0.22647596  0.87587578  0.88953188    -0.12700
F343        F  0.05783537  0.87281841  0.88384865    -0.13300
C344        C  0.21865123  0.95507140  0.81900689     0.16500
C345        C  0.25153388  0.97434046  0.79407672     0.25900
C346        C  0.27590648  0.95188136  0.78370557    -0.40400
C347        C  0.26198236  0.90669978  0.79582215     0.32900
C348        C  0.22701524  0.88614783  0.81932605     0.14600
F349        F  0.20074076  0.98085677  0.83130315    -0.12700
F350        F  0.28377446  0.88320756  0.78607420    -0.13200
F351        F  0.26155104  0.01635009  0.78134757    -0.15500
F352        F  0.21384876  0.84215366  0.82982315    -0.14100
F353        F  0.11623090  0.90428997  0.83250839    -0.14100
F354        F  0.16362185  0.83559034  0.93803269    -0.15500
C355        C  0.15074719  0.91847990  0.12747608     0.13200
C356        C  0.18690397  0.90767533  0.12976911     0.01500
C357        C  0.18968137  0.87838245  0.10640318     0.16500
C358        C  0.15618167  0.85917290  0.08182452     0.25900
C359        C  0.11923972  0.86878516  0.08020758    -0.40400
C360        C  0.11716594  0.89909444  0.10295971     0.33000
C361        C  0.22059556  0.92538757  0.15709680     0.01600
F362        F  0.22378483  0.86683533  0.10811689    -0.12700
F363        F  0.08216213  0.90939844  0.10157714    -0.13300
C364        C  0.20409065  0.91624070  0.18894864     0.16500
C365        C  0.23571793  0.93254194  0.21474098     0.25900
C366        C  0.28443104  0.95797571  0.20916830    -0.40400
C367        C  0.30094796  0.96567063  0.17735038     0.32900
C368        C  0.26938206  0.95037371  0.15157976     0.14600
F369        F  0.15724150  0.89125763  0.19509431    -0.12700
F370        F  0.34782483  0.98854855  0.17126257    -0.13200
F371        F  0.21875968  0.92488350  0.24517439    -0.15500
F372        F  0.28650874  0.96096588  0.12121316    -0.14100
F373        F  0.14794072  0.94781581  0.14901330    -0.14100
F374        F  0.15888388  0.82991789  0.06016691    -0.15500
C375        C  0.81259778  0.66801678  0.11695046     0.14600
C376        C  0.80987428  0.70064933  0.13715295     0.01500
C377        C  0.83996858  0.74897349  0.13173373     0.16500
C378        C  0.87256507  0.76447056  0.10662026     0.25900
C379        C  0.87562331  0.73186702  0.08659995    -0.40400
C380        C  0.84535069  0.68353089  0.09188832     0.33000
C381        C  0.77542725  0.68457900  0.16374248     0.01600
F382        F  0.83714178  0.78109734  0.15048741    -0.12700
F383        F  0.84786849  0.65148121  0.07287733    -0.13300
C384        C  0.79091946  0.69383545  0.19576270     0.16500
C385        C  0.75850859  0.68155140  0.22082589     0.25900
C386        C  0.71015716  0.66043062  0.21415927    -0.40400
C387        C  0.69462377  0.64964040  0.18218661     0.32900
C388        C  0.72701477  0.66175239  0.15716762     0.14600
F389        F  0.83756618  0.71566909  0.20263402    -0.12700
F390        F  0.64807411  0.62854767  0.17518477    -0.13200
F391        F  0.77449508  0.69281633  0.25143265    -0.15500
F392        F  0.71129282  0.65303381  0.12639973    -0.14100
F393        F  0.78401734  0.62117343  0.12184564    -0.14100
F394        F  0.90085351  0.81131805  0.10154886    -0.15500
C395        C  0.93346363  0.21117210  0.17614083     0.14600
C396        C  0.90058830  0.21492189  0.15665165     0.01500
C397        C  0.89063863  0.25094109  0.16295575     0.16500
C398        C  0.91418136  0.28339309  0.18767250     0.25900
C399        C  0.94842023  0.28069662  0.20635277    -0.40400
C400        C  0.95689352  0.24348992  0.20081959     0.33000
C401        C  0.87742663  0.18153186  0.12960187     0.01600
F402        F  0.85914610  0.25555468  0.14454583    -0.12700
F403        F  0.98739692  0.23794470  0.21967110    -0.13300
C404        C  0.82815411  0.15282656  0.12815719     0.16500
C405        C  0.80693506  0.11968819  0.10350926     0.25900
C406        C  0.83457114  0.11481258  0.07990318    -0.40400
C407        C  0.88363822  0.14408380  0.08091725     0.32900
C408        C  0.90485666  0.17717836  0.10549575     0.14600
F409        F  0.80069895  0.15574773  0.15121307    -0.12700
F410        F  0.91103061  0.13974955  0.05848343    -0.13200
F411        F  0.75942590  0.09173250  0.10289982    -0.15500
F412        F  0.95234626  0.20501443  0.10583165    -0.14100
F413        F  0.94242003  0.17565861  0.17152593    -0.14100
F414        F  0.90437919  0.31820843  0.19285216    -0.15500
C415        C  0.81954842  0.14642222  0.86531323     0.14600
C416        C  0.86867837  0.17501930  0.86434965     0.01500
C417        C  0.89619580  0.17095591  0.88841508     0.16500
C418        C  0.87508197  0.13824141  0.91302478     0.25900
C419        C  0.82603316  0.10923414  0.91393367    -0.40400
C420        C  0.79824875  0.11349408  0.89000949     0.33000
C421        C  0.89186385  0.20800951  0.83768026     0.01600
F422        F  0.94361368  0.19858920  0.88784159    -0.12700
F423        F  0.75076997  0.08531184  0.89038243    -0.13300
C424        C  0.88952468  0.24925452  0.83525204     0.16500
C425        C  0.91423442  0.28188112  0.81102665     0.25900
C426        C  0.94157742  0.27354001  0.78915825    -0.40400
C427        C  0.94243937  0.23143413  0.79092134     0.32900
C428        C  0.91819166  0.19912275  0.81530164     0.14600
F429        F  0.86459428  0.25851193  0.85695087    -0.12700
F430        F  0.96658865  0.22161459  0.76891835    -0.13200
F431        F  0.91259041  0.32217910  0.80936904    -0.15500
F432        F  0.92041892  0.15915159  0.81720513    -0.14100
F433        F  0.79255409  0.14956891  0.84188425    -0.14100
F434        F  0.90246594  0.13402325  0.93564841    -0.15500
C435        C  0.66301531  0.82459030  0.86935127     0.14600
C436        C  0.68623426  0.79886016  0.86654440     0.01500
C437        C  0.72108721  0.80591567  0.88901627     0.16500
C438        C  0.73280187  0.83856012  0.91383135     0.25900
C439        C  0.70993290  0.86466633  0.91642289    -0.40400
C440        C  0.67494387  0.85744010  0.89404337     0.33000
C441        C  0.67512522  0.76573886  0.83958895     0.01600
F442        F  0.74384422  0.78128804  0.88677384    -0.12700
F443        F  0.65303828  0.88290531  0.89583273    -0.13300
C444        C  0.70885978  0.77530633  0.81571775     0.16500
C445        C  0.69875010  0.74385201  0.79040372     0.25900
C446        C  0.65487554  0.70228386  0.78867258    -0.40400
C447        C  0.62074796  0.69307600  0.81216567     0.32900
C448        C  0.63089897  0.72454242  0.83757267     0.14600
F449        F  0.75156227  0.81520839  0.81694371    -0.12700
F450        F  0.57851028  0.65258330  0.81126884    -0.13200
F451        F  0.73196677  0.75353982  0.76772024    -0.15500
F452        F  0.59821691  0.71414654  0.86079007    -0.14100
F453        F  0.62984381  0.81888497  0.84755374    -0.14100
F454        F  0.76738647  0.84575340  0.93481966    -0.15500
C455        C  0.71626847  0.80618527  0.10986707     0.14600
C456        C  0.68922008  0.80771924  0.13534330     0.01500
C457        C  0.67399045  0.84052572  0.13465232     0.16500
C458        C  0.68585246  0.87164235  0.10882572     0.25900
C459        C  0.71343154  0.87057914  0.08348888    -0.40400
C460        C  0.72852487  0.83758711  0.08417595     0.33000
C461        C  0.67858415  0.77629091  0.16323215     0.01600
F462        F  0.64896996  0.84337123  0.15950543    -0.12700
F463        F  0.75613827  0.83669841  0.06036939    -0.13300
C464        C  0.71481802  0.78296213  0.18418772     0.16500
C465        C  0.70537590  0.75254291  0.21010412     0.25900
C466        C  0.65991186  0.71373136  0.21465043    -0.40400
C467        C  0.62329978  0.70805459  0.19428091     0.32900
C468        C  0.63254276  0.73941212  0.16886840     0.14600
F469        F  0.75934447  0.81909802  0.17952413    -0.12700
F470        F  0.57901294  0.67119815  0.19831530    -0.13200
F471        F  0.74067832  0.76088268  0.23074469    -0.15500
F472        F  0.59692627  0.73298027  0.14913569    -0.14100
F473        F  0.73111428  0.77450984  0.11010326    -0.14100
F474        F  0.67140906  0.90362554  0.10881862    -0.15500
C475        C  0.17535095  0.32644978  0.13110592     0.14600
C476        C  0.12655630  0.30898694  0.13192256     0.01500
C477        C  0.09808545  0.27765567  0.10778977     0.16500
C478        C  0.11777575  0.26421734  0.08326773     0.25900
C479        C  0.16649870  0.28174603  0.08230050    -0.40400
C480        C  0.19513455  0.31309551  0.10644527     0.33000
C481        C  0.10462119  0.32257386  0.15783026     0.01600
F482        F  0.05076029  0.25885325  0.10853897    -0.12700
F483        F  0.24230246  0.33047067  0.10621701    -0.13300
C484        C  0.07549861  0.34101821  0.14996069     0.16500
C485        C  0.05016548  0.34859955  0.17381425     0.25900
C486        C  0.05399976  0.33854265  0.20609303    -0.40400
C487        C  0.08519807  0.32271769  0.21422448     0.32900
C488        C  0.10992452  0.31434915  0.19031549     0.14600
F489        F  0.07138469  0.35140238  0.11900356    -0.12700
F490        F  0.08983709  0.31305907  0.24526997    -0.13200
F491        F  0.02175262  0.36562494  0.16538091    -0.15500
F492        F  0.13725248  0.29607895  0.19881384    -0.14100
F493        F  0.20392995  0.35677295  0.15396913    -0.14100
F494        F  0.08900263  0.23305143  0.06085889    -0.15500
C495        C  0.09044924  0.28639806  0.80671353     0.14600
C496        C  0.08760617  0.29708103  0.83907396     0.01500
C497        C  0.06434058  0.32195685  0.84631159     0.16500
C498        C  0.04360610  0.33488252  0.82187657     0.25900
C499        C  0.04551221  0.32308907  0.78969188    -0.40400
C500        C  0.06979562  0.29943285  0.78231571     0.33000
C501        C  0.10875412  0.28218492  0.86512883     0.01600
F502        F  0.06208969  0.33418673  0.87706275    -0.12700
F503        F  0.07163053  0.28704042  0.75153739    -0.13300
C504        C  0.15664649  0.29558857  0.86426050     0.16500
C505        C  0.17656632  0.28188455  0.88877035     0.25900
C506        C  0.14911462  0.25436580  0.91470882    -0.40400
C507        C  0.10106268  0.24024921  0.91537455     0.32900
C508        C  0.08125279  0.25436787  0.89101928     0.14600
F509        F  0.18461578  0.32339983  0.84018513    -0.12700
F510        F  0.07335693  0.21291088  0.93972298    -0.13200
F511        F  0.22319291  0.29673139  0.88770836    -0.15500
F512        F  0.03500934  0.24058501  0.89264896    -0.14100
F513        F  0.11183614  0.26179243  0.79879619    -0.14100
F514        F  0.02153387  0.35890667  0.82962425    -0.15500
C515        C  0.33059144  0.11214368  0.90649562     0.14600
C516        C  0.33237505  0.12341752  0.87362575     0.01500
C517        C  0.31791821  0.15573130  0.86481436     0.16500
C518        C  0.30424356  0.17703218  0.88807528     0.25900
C519        C  0.29792242  0.16195726  0.92027111    -0.40400
C520        C  0.30994481  0.12787735  0.92880704     0.33000
C521        C  0.34642871  0.09980874  0.84864163     0.01600
F522        F  0.31503008  0.16579912  0.83359408    -0.12700
F523        F  0.30159694  0.10930656  0.95883272    -0.13300
C524        C  0.33423697  0.05219645  0.85174821     0.16500
C525        C  0.34519493  0.02998351  0.82754636     0.25900
C526        C  0.35925735  0.05085792  0.79703594    -0.40400
C527        C  0.37299067  0.09881513  0.79411183     0.32900
C528        C  0.37001174  0.12364044  0.82034325     0.14600
F529        F  0.30862177  0.02545937  0.87694622    -0.12700
F530        F  0.38743687  0.12165844  0.76558750    -0.13200
F531        F  0.33871588  0.98657641  0.83339207    -0.15500
F532        F  0.38959138  0.17092602  0.81756232    -0.14100
F533        F  0.34942091  0.08642391  0.91750757    -0.14100
F534        F  0.29606555  0.21179140  0.87876503    -0.15500
C535        C  0.29174496  0.10683340  0.11277875     0.14600
C536        C  0.32646539  0.13444565  0.13544359     0.01500
C537        C  0.35232210  0.18355825  0.13141011     0.16500
C538        C  0.34200324  0.20482199  0.10591090     0.25900
C539        C  0.30613035  0.17716510  0.08396966    -0.40400
C540        C  0.28175623  0.12802318  0.08725123     0.33000
C541        C  0.33402247  0.11173377  0.16380808     0.01600
F542        F  0.38612557  0.21095425  0.15292249    -0.12700
F543        F  0.24689593  0.10068738  0.06635382    -0.13300
C544        C  0.37754435  0.11451927  0.16902137     0.16500
C545        C  0.38295569  0.08942188  0.19422988     0.25900
C546        C  0.34490240  0.06111400  0.21450491    -0.40400
C547        C  0.30233009  0.06077943  0.21053019     0.32900
C548        C  0.29677743  0.08543928  0.18519685     0.14600
F549        F  0.41405409  0.13960841  0.14873757    -0.12700
F550        F  0.26577840  0.03567445  0.23081231    -0.13200
F551        F  0.42449529  0.09055264  0.19773299    -0.15500
F552        F  0.25476537  0.08320906  0.18126479    -0.14100
F553        F  0.26702800  0.05926964  0.11568222    -0.14100
F554        F  0.36599626  0.25235657  0.10312210    -0.15500
C555        C  0.65164202  0.50313403  0.41936784     0.14600
C556        C  0.63349549  0.48743157  0.38841149     0.01500
C557        C  0.61804893  0.44040325  0.38012056     0.16500
C558        C  0.62191875  0.41014388  0.40210924     0.25900
C559        C  0.64195732  0.42658665  0.43259402    -0.40400
C560        C  0.65614238  0.47322444  0.44110943     0.33000
C561        C  0.63334359  0.52099869  0.36443832     0.01600
F562        F  0.60093339  0.42426331  0.35029171    -0.12700
F563        F  0.67376585  0.48976600  0.47079129    -0.13300
C564        C  0.67550679  0.56254076  0.35701793     0.16500
C565        C  0.67624863  0.59392394  0.33406978     0.25900
C566        C  0.63495457  0.58446762  0.31772837    -0.40400
C567        C  0.59259946  0.54312376  0.32528032     0.32900
C568        C  0.59176280  0.51181228  0.34857638     0.14600
F569        F  0.71648486  0.57206782  0.37129444    -0.12700
F570        F  0.55247420  0.53194861  0.30915423    -0.13200
F571        F  0.71774273  0.63339861  0.32731244    -0.15500
F572        F  0.55035424  0.47243889  0.35559446    -0.14100
F573        F  0.66499742  0.54764887  0.42860432    -0.14100
F574        F  0.60793251  0.36540098  0.39309528    -0.15500
C575        C  0.60667432  0.45535327  0.59730827     0.14600
C576        C  0.64476569  0.48386577  0.61731846     0.01500
C577        C  0.68647653  0.48243181  0.61454483     0.16500
C578        C  0.69046214  0.45371850  0.59142529     0.25900
C579        C  0.65274117  0.42602552  0.57035763    -0.40400
C580        C  0.61042310  0.42668199  0.57413552     0.33000
C581        C  0.64043462  0.51463507  0.64128607     0.01600
F582        F  0.72337747  0.50883801  0.63430545    -0.12700
F583        F  0.57247167  0.39984586  0.55532837    -0.13300
C584        C  0.61884318  0.49618459  0.67096716     0.16500
C585        C  0.61465084  0.52509061  0.69368535     0.25900
C586        C  0.63161366  0.57290276  0.68700992    -0.40400
C587        C  0.65232541  0.59112851  0.65698179     0.32900
C588        C  0.65681194  0.56219585  0.63431772     0.14600
F589        F  0.60270158  0.45033302  0.67815670    -0.12700
F590        F  0.67017455  0.63738447  0.65021226    -0.13200
F591        F  0.59486241  0.50668919  0.72258718    -0.15500
F592        F  0.67779700  0.58070131  0.60573775    -0.14100
F593        F  0.56579850  0.45570909  0.60006018    -0.14100
F594        F  0.73136285  0.45321413  0.58977144    -0.15500
C595        C  0.86158752  0.37410627  0.58760745     0.14600
C596        C  0.84547048  0.34876226  0.61644054     0.01500
C597        C  0.79681273  0.31987014  0.62139480     0.16500
C598        C  0.76481524  0.31610806  0.59780598     0.25900
C599        C  0.78094656  0.34111459  0.56877428    -0.40400
C600        C  0.82967134  0.37029889  0.56396885     0.33000
C601        C  0.87934942  0.35155010  0.64104082     0.01600
F602        F  0.78029321  0.29440799  0.64882583    -0.12700
F603        F  0.84658090  0.39408810  0.53596143    -0.13300
C604        C  0.87746699  0.36576571  0.67249413     0.16500
C605        C  0.90787162  0.36606771  0.69609337     0.25900
C606        C  0.94090805  0.35238212  0.68864695    -0.40400
C607        C  0.94286643  0.33833892  0.65711052     0.32900
C608        C  0.91259047  0.33825867  0.63347178     0.14600
F609        F  0.84590496  0.37906933  0.68039030    -0.12700
F610        F  0.97212328  0.32203357  0.64960280    -0.13200
F611        F  0.90448233  0.37890008  0.72646417    -0.15500
F612        F  0.91415810  0.32298416  0.60351530    -0.14100
F613        F  0.90834746  0.40271752  0.58237749    -0.14100
F614        F  0.71804760  0.28836022  0.60352373    -0.15500
C615        C  0.85595492  0.34210051  0.41597313     0.14600
C616        C  0.85700540  0.35976798  0.38502010     0.01500
C617        C  0.82498687  0.37487960  0.37758590     0.16500
C618        C  0.79192928  0.37137907  0.40034542     0.25900
C619        C  0.78995103  0.35234322  0.43097547    -0.40400
C620        C  0.82265652  0.33810166  0.43857385     0.33000
C621        C  0.88901495  0.35925372  0.35986830     0.01600
F622        F  0.82431408  0.39110569  0.34773171    -0.12700
F623        F  0.82269908  0.32055652  0.46809667    -0.13300
C624        C  0.88652885  0.31668652  0.35155029     0.16500
C625        C  0.91408738  0.31502357  0.32661097     0.25900
C626        C  0.94535883  0.35597809  0.30960125    -0.40400
C627        C  0.94850142  0.39879469  0.31818559     0.32900
C628        C  0.92063880  0.40042178  0.34309449     0.14600
F629        F  0.85631909  0.27624084  0.36704461    -0.12700
F630        F  0.97760278  0.43881589  0.30186783    -0.13200
F631        F  0.91045055  0.27322475  0.31916806    -0.15500
F632        F  0.92463883  0.44226159  0.35090653    -0.14100
F633        F  0.88724877  0.32858687  0.42435487    -0.14100
F634        F  0.76035304  0.38444048  0.39184724    -0.15500
C635        C  0.50409704  0.17905152  0.60789717     0.14600
C636        C  0.51302888  0.14297677  0.61635310     0.01500
C637        C  0.54910168  0.14013593  0.60055687     0.16500
C638        C  0.57532926  0.17242308  0.57631799     0.25900
C639        C  0.56639212  0.20872270  0.56768433    -0.40400
C640        C  0.53042067  0.21157179  0.58393549     0.33000
C641        C  0.48325180  0.10767891  0.64088874     0.01600
F642        F  0.55820703  0.10539389  0.60808123    -0.12700
F643        F  0.51982592  0.24522855  0.57626234    -0.13300
C644        C  0.43452765  0.08015618  0.63593525     0.16500
C645        C  0.40511627  0.05084037  0.66022076     0.25900
C646        C  0.42387694  0.04735712  0.68980618    -0.40400
C647        C  0.47292713  0.07365912  0.69440295     0.32900
C648        C  0.50240508  0.10355787  0.67010034     0.14600
F649        F  0.41524488  0.08265481  0.60769538    -0.12700
F650        F  0.49214187  0.07107441  0.72264243    -0.13200
F651        F  0.35790680  0.02788581  0.65542102    -0.15500
F652        F  0.54936277  0.12997290  0.67559526    -0.14100
F653        F  0.46968723  0.18283685  0.62302018    -0.14100
F654        F  0.60953675  0.16806202  0.56141368    -0.15500
C655        C  0.55540489  0.14026372  0.39488884     0.14600
C656        C  0.51748189  0.14178585  0.38071952     0.01500
C657        C  0.50906929  0.17817877  0.38904921     0.16500
C658        C  0.53686546  0.21147415  0.41212419     0.25900
C659        C  0.57431414  0.20958540  0.42692275    -0.40400
C660        C  0.58377947  0.17402664  0.41771369     0.33000
C661        C  0.48521153  0.10476775  0.35812709     0.01600
F662        F  0.47368324  0.18135839  0.37476675    -0.12700
F663        F  0.61910536  0.17060710  0.43186386    -0.13300
C664        C  0.43760219  0.07584123  0.36630195     0.16500
C665        C  0.40520245  0.04536204  0.34363683     0.25900
C666        C  0.41995103  0.04323852  0.31240686    -0.40400
C667        C  0.46808069  0.07038568  0.30473740     0.32900
C668        C  0.50053808  0.10079385  0.32748476     0.14600
F669        F  0.42222688  0.07867360  0.39595358    -0.12700
F670        F  0.48318460  0.06900810  0.27467796    -0.13200
F671        F  0.35894417  0.02052567  0.35150572    -0.15500
F672        F  0.54633262  0.12840437  0.31898969    -0.14100
F673        F  0.56385108  0.10509985  0.38749611    -0.14100
F674        F  0.52727564  0.24577952  0.41983648    -0.15500
loop_ 
_geom_bond_atom_site_label_1 
_geom_bond_atom_site_label_2 
_geom_bond_distance 
_geom_bond_site_symmetry_2 
_ccdc_geom_bond_type 
O1          Cr19   1.975       .  S
O1            C9   1.262       .  A
O2          Cr19   2.014       .  S
O2            C3   1.267       .  A
C3            O4   1.265       .  A
C3          C619   1.490       .  S
O4          Cr20   1.996       .  S
O5          Cr20   2.008       .  S
O5            C6   1.265       .  A
C6            O7   1.261       .  A
C6          C559   1.485       .  S
O7          Cr21   1.987       .  S
O8          Cr21   2.013       .  S
O8            C9   1.269       .  A
C9          C659   1.482       .  S
O10         Cr19   2.007       .  S
O10          C18   1.264       .  A
O11         Cr19   1.975       .  S
O11          C12   1.260       .  A
C12          O13   1.266       .  A
C12         C599   1.479       .  S
O13         Cr20   2.009       .  S
O14         Cr20   1.985       .  S
O14          C15   1.263       .  A
C15          O16   1.269       .  A
C15         C579   1.498       .  S
O16         Cr21   2.017       .  S
O17         Cr21   1.986       .  S
O17          C18   1.261       .  A
C18         C639   1.492       .  S
Cr19         O22   1.773       .  S
Cr20         O22   1.772       .  S
Cr21         O22   1.771       .  S
N23          C28   1.353       .  A
N23          C27   1.355       .  A
N23          H55   1.041       .  S
N24          C31   1.350       .  A
N24          C32   1.350   1_554  A
N25          C30   1.355       .  A
N25          C29   1.356       .  A
N25          H56   1.042       .  S
N26          C33   1.354   1_556  A
N26          C34   1.355       .  A
C27          C35   1.386       .  A
C27          C43   1.414       .  A
C28          C44   1.417       .  A
C28          C36   1.388       .  A
C29          C37   1.389       .  A
C29          C46   1.425       .  A
C30          C45   1.417       .  A
C30          C38   1.385       .  A
C31          C43   1.407       .  A
C31          C39   1.382       .  A
C32          C46   1.419       .  A
C32          C40   1.389       .  A
C33          C41   1.386       .  A
C33          C44   1.419       .  A
C34          C42   1.386       .  A
C34          C45   1.418       .  A
C35          C36   1.375       .  A
C35          H47   1.082       .  S
C36          H48   1.082       .  S
C37          C38   1.380       .  A
C37          H49   1.082       .  S
C38          H50   1.082       .  S
C39          C40   1.376   1_554  A
C39          H51   1.082       .  S
C40          H52   1.082       .  S
C41          C42   1.376   1_554  A
C41          H53   1.082       .  S
C42          H54   1.082       .  S
C43         C539   1.488       .  S
C44         C479   1.497       .  S
C45         C506   1.500       .  S
C46         C519   1.508       .  S
N57          C62   1.354       .  A
N57          C61   1.352   1_565  A
N57          H89   1.036       .  S
N58          C65   1.350       .  A
N58          C66   1.352   1_556  A
N59          C64   1.353       .  A
N59          C63   1.355   1_565  A
N59          H90   1.036       .  S
N60          C67   1.352       .  A
N60          C68   1.351   1_556  A
C61          C69   1.388       .  A
C61          C77   1.414       .  A
C62          C78   1.413       .  A
C62          C70   1.386       .  A
C63          C71   1.386       .  A
C63          C80   1.415       .  A
C64          C79   1.416       .  A
C64          C72   1.388       .  A
C65          C77   1.413       .  A
C65          C73   1.387       .  A
C66          C80   1.412       .  A
C66          C74   1.385       .  A
C67          C75   1.385       .  A
C67          C78   1.411       .  A
C68          C76   1.387       .  A
C68          C79   1.414       .  A
C69          C70   1.373   1_545  A
C69          H81   1.082       .  S
C70          H82   1.082       .  S
C71          C72   1.374   1_545  A
C71          H83   1.082       .  S
C72          H84   1.082       .  S
C73          C74   1.373   1_556  A
C73          H85   1.082       .  S
C74          H86   1.082       .  S
C75          C76   1.374   1_556  A
C75          H87   1.082       .  S
C76          H88   1.082       .  S
C77         C419   1.480       .  S
C78         C439   1.488       .  S
C79         C459   1.487       .  S
C80         C406   1.490       .  S
N91          C96   1.354   1_655  A
N91          C95   1.354       .  A
N91         H123   1.039       .  S
N92          C99   1.351       .  A
N92         C100   1.352   1_554  A
N93          C98   1.353   1_655  A
N93          C97   1.352       .  A
N93         H124   1.040       .  S
N94         C101   1.352   1_556  A
N94         C102   1.353       .  A
C95         C103   1.387       .  A
C95         C111   1.416       .  A
C96         C112   1.418       .  A
C96         C104   1.388       .  A
C97         C105   1.386       .  A
C97         C114   1.412       .  A
C98         C113   1.416       .  A
C98         C106   1.388       .  A
C99         C111   1.413       .  A
C99         C107   1.387       .  A
C100        C114   1.412       .  A
C100        C108   1.386       .  A
C101        C109   1.385       .  A
C101        C112   1.414       .  A
C102        C110   1.387       .  A
C102        C113   1.417       .  A
C103        C104   1.376   1_655  A
C103        H115   1.082       .  S
C104        H116   1.082       .  S
C105        C106   1.375   1_655  A
C105        H117   1.083       .  S
C106        H118   1.082       .  S
C107        C108   1.374   1_554  A
C107        H119   1.082       .  S
C108        H120   1.082       .  S
C109        C110   1.375   1_554  A
C109        H121   1.082       .  S
C110        H122   1.082       .  S
C111        C379   1.489       .  S
C112        C359   1.491       .  S
C113        C339   1.498       .  S
C114        C326   1.486       .  S
C125        C626   1.496       .  S
C125        C126   1.418   1_655  A
C125        C130   1.411       .  A
C126        C306   1.488       .  S
C126        C127   1.405       .  A
C127        C128   1.402       .  A
C127        H132   1.085       .  S
C128        C486   1.490       .  S
C128        C129   1.419   1_455  A
C129        C399   1.494       .  S
C129        C130   1.410       .  A
C130        H131   1.084       .  S
C133        C279   1.483       .  S
C133        C134   1.419       .  A
C133        C138   1.405       .  A
C134        C566   1.491       .  S
C134        C135   1.410       .  A
C135        C136   1.403       .  A
C135        H140   1.084       .  S
C136        C386   1.487       .  S
C136        C137   1.415       .  A
C137        C466   1.486       .  S
C137        C138   1.401       .  A
C138        H139   1.085       .  S
C141        C606   1.487       .  S
C141        C142   1.417   1_655  A
C141        C146   1.401       .  A
C142        C259   1.485       .  S
C142        C143   1.411       .  A
C143        C144   1.406       .  A
C143        H148   1.084       .  S
C144        C499   1.494       .  S
C144        C145   1.413   1_455  A
C145        C426   1.475       .  S
C145        C146   1.399       .  A
C146        H147   1.085       .  S
C149        C586   1.487       .  S
C149        C150   1.421       .  A
C149        C154   1.409       .  A
C150        C246   1.491       .  S
C150        C151   1.408       .  A
C151        C152   1.402       .  A
C151        H156   1.084       .  S
C152        C446   1.481       .  S
C152        C153   1.412       .  A
C153        C319   1.488       .  S
C153        C154   1.401       .  A
C154        H155   1.085       .  S
C157        C646   1.492       .  S
C157        C158   1.412   1_545  A
C157        C162   1.404       .  A
C158        C219   1.487       .  S
C158        C159   1.402       .  A
C159        C160   1.405       .  A
C159        H164   1.084       .  S
C160        C346   1.498       .  S
C160        C161   1.432   1_565  A
C161        C526   1.505       .  S
C161        C162   1.412       .  A
C162        H163   1.082       .  S
C165        C206   1.489       .  S
C165        C166   1.419   1_565  A
C165        C170   1.409       .  A
C166        C666   1.485       .  S
C166        C167   1.406       .  A
C167        C168   1.400       .  A
C167        H172   1.085       .  S
C168        C546   1.487       .  S
C168        C169   1.415   1_545  A
C169        C366   1.489       .  S
C169        C170   1.404       .  A
C170        H171   1.084       .  S
O173       Cr191   1.983       .  S
O173        C181   1.261       .  A
O174       Cr191   2.011       .  S
O174        C175   1.266       .  A
C175        O176   1.261       .  A
C175        C226   1.476       .  S
O176       Cr192   1.983       .  S
O177       Cr192   2.017       .  S
O177        C178   1.268       .  A
C178        O179   1.261       .  A
C178        C239   1.487       .  S
O179       Cr193   1.989       .  S
O180       Cr193   2.015       .  S
O180        C181   1.268       .  A
C181        C266   1.478       .  S
O182       Cr191   2.014       .  S
O182        C190   1.267       .  A
O183       Cr191   1.983       .  S
O183        C184   1.262       .  A
C184        O185   1.268       .  A
C184        C199   1.493       .  S
O185       Cr192   2.016       .  S
O186       Cr192   1.980       .  S
O186        C187   1.261       .  A
C187        O188   1.269       .  A
C187        C286   1.494       .  S
O188       Cr193   2.018       .  S
O189       Cr193   1.975       .  S
O189        C190   1.260       .  A
C190        C299   1.482       .  S
Cr191       O194   1.770       .  S
Cr192       O194   1.767       .  S
Cr193       O194   1.766       .  S
C195        C196   1.408       .  A
C195        C200   1.403       .  A
C195        F213   1.358       .  S
C196        C201   1.490       .  S
C196        C197   1.404       .  A
C197        C198   1.400       .  A
C197        F202   1.358       .  S
C198        C199   1.412       .  A
C198        F214   1.358       .  S
C199        C200   1.412       .  A
C200        F203   1.358       .  S
C201        C204   1.406       .  A
C201        C208   1.410       .  A
C204        C205   1.400       .  A
C204        F209   1.358       .  S
C205        C206   1.407       .  A
C205        F211   1.358       .  S
C206        C207   1.406       .  A
C207        C208   1.403       .  A
C207        F210   1.357       .  S
C208        F212   1.358       .  S
C215        C216   1.408       .  A
C215        C220   1.398       .  A
C215        F233   1.358       .  S
C216        C221   1.487       .  S
C216        C217   1.407       .  A
C217        C218   1.400       .  A
C217        F222   1.358       .  S
C218        C219   1.407       .  A
C218        F234   1.358       .  S
C219        C220   1.406       .  A
C220        F223   1.358       .  S
C221        C224   1.407       .  A
C221        C228   1.409       .  A
C224        C225   1.398       .  A
C224        F229   1.358       .  S
C225        C226   1.406       .  A
C225        F231   1.358       .  S
C226        C227   1.405       .  A
C227        C228   1.402       .  A
C227        F230   1.358       .  S
C228        F232   1.358       .  S
C235        C236   1.407       .  A
C235        C240   1.401       .  A
C235        F253   1.358       .  S
C236        C241   1.494       .  S
C236        C237   1.410       .  A
C237        C238   1.406       .  A
C237        F242   1.358       .  S
C238        C239   1.408       .  A
C238        F254   1.358       .  S
C239        C240   1.408       .  A
C240        F243   1.358       .  S
C241        C244   1.408       .  A
C241        C248   1.410       .  A
C244        C245   1.400       .  A
C244        F249   1.358       .  S
C245        C246   1.408       .  A
C245        F251   1.358       .  S
C246        C247   1.406       .  A
C247        C248   1.406       .  A
C247        F250   1.357       .  S
C248        F252   1.357       .  S
C255        C256   1.407       .  A
C255        C260   1.403       .  A
C255        F273   1.358       .  S
C256        C261   1.486       .  S
C256        C257   1.407       .  A
C257        C258   1.398       .  A
C257        F262   1.358       .  S
C258        C259   1.405       .  A
C258        F274   1.358       .  S
C259        C260   1.407       .  A
C260        F263   1.358       .  S
C261        C264   1.408       .  A
C261        C268   1.406       .  A
C264        C265   1.402       .  A
C264        F269   1.358       .  S
C265        C266   1.405       .  A
C265        F271   1.358       .  S
C266        C267   1.407       .  A
C267        C268   1.399       .  A
C267        F270   1.358       .  S
C268        F272   1.358       .  S
C275        C276   1.406       .  A
C275        C280   1.401       .  A
C275        F293   1.358       .  S
C276        C281   1.487       .  S
C276        C277   1.408       .  A
C277        C278   1.403       .  A
C277        F282   1.357       .  S
C278        C279   1.404       .  A
C278        F294   1.358       .  S
C279        C280   1.406       .  A
C280        F283   1.358       .  S
C281        C284   1.404       .  A
C281        C288   1.405       .  A
C284        C285   1.401       .  A
C284        F289   1.358       .  S
C285        C286   1.412       .  A
C285        F291   1.358       .  S
C286        C287   1.413       .  A
C287        C288   1.403       .  A
C287        F290   1.358       .  S
C288        F292   1.358       .  S
C295        C296   1.404       .  A
C295        C300   1.400       .  A
C295        F313   1.358       .  S
C296        C301   1.483       .  S
C296        C297   1.406       .  A
C297        C298   1.399       .  A
C297        F302   1.358       .  S
C298        C299   1.408       .  A
C298        F314   1.358       .  S
C299        C300   1.410       .  A
C300        F303   1.358       .  S
C301        C304   1.405       .  A
C301        C308   1.406       .  A
C304        C305   1.398       .  A
C304        F309   1.358       .  S
C305        C306   1.407       .  A
C305        F311   1.358       .  S
C306        C307   1.407       .  A
C307        C308   1.401       .  A
C307        F310   1.357       .  S
C308        F312   1.358       .  S
C315        C316   1.405       .  A
C315        C320   1.400       .  A
C315        F333   1.358       .  S
C316        C321   1.481       .  S
C316        C317   1.405       .  A
C317        C318   1.399       .  A
C317        F322   1.358       .  S
C318        C319   1.407       .  A
C318        F334   1.357       .  S
C319        C320   1.406       .  A
C320        F323   1.358       .  S
C321        C324   1.406       .  A
C321        C328   1.406       .  A
C324        C325   1.398       .  A
C324        F329   1.358       .  S
C325        C326   1.405       .  A
C325        F331   1.358       .  S
C326        C327   1.404       .  A
C327        C328   1.401       .  A
C327        F330   1.357       .  S
C328        F332   1.357       .  S
C335        C336   1.408       .  A
C335        C340   1.400       .  A
C335        F353   1.358       .  S
C336        C341   1.494       .  S
C336        C337   1.411       .  A
C337        C338   1.401       .  A
C337        F342   1.358       .  S
C338        C339   1.407       .  A
C338        F354   1.358       .  S
C339        C340   1.408       .  A
C340        F343   1.358       .  S
C341        C344   1.410       .  A
C341        C348   1.408       .  A
C344        C345   1.401       .  A
C344        F349   1.357       .  S
C345        C346   1.408       .  A
C345        F351   1.358   1_565  S
C346        C347   1.411       .  A
C347        C348   1.400       .  A
C347        F350   1.358       .  S
C348        F352   1.358       .  S
C355        C356   1.408       .  A
C355        C360   1.400       .  A
C355        F373   1.358       .  S
C356        C361   1.488       .  S
C356        C357   1.408       .  A
C357        C358   1.400       .  A
C357        F362   1.358       .  S
C358        C359   1.405       .  A
C358        F374   1.358       .  S
C359        C360   1.405       .  A
C360        F363   1.358       .  S
C361        C364   1.409       .  A
C361        C368   1.407       .  A
C364        C365   1.401       .  A
C364        F369   1.358       .  S
C365        C366   1.405       .  A
C365        F371   1.358       .  S
C366        C367   1.407       .  A
C367        C368   1.399       .  A
C367        F370   1.358       .  S
C368        F372   1.358       .  S
C375        C376   1.406       .  A
C375        C380   1.401       .  A
C375        F393   1.358       .  S
C376        C381   1.481       .  S
C376        C377   1.405       .  A
C377        C378   1.399       .  A
C377        F382   1.358       .  S
C378        C379   1.405       .  A
C378        F394   1.358       .  S
C379        C380   1.406       .  A
C380        F383   1.358       .  S
C381        C384   1.406       .  A
C381        C388   1.404       .  A
C384        C385   1.400       .  A
C384        F389   1.358       .  S
C385        C386   1.407       .  A
C385        F391   1.358       .  S
C386        C387   1.407       .  A
C387        C388   1.399       .  A
C387        F390   1.357       .  S
C388        F392   1.358       .  S
C395        C396   1.407       .  A
C395        C400   1.400       .  A
C395        F413   1.358       .  S
C396        C401   1.489       .  S
C396        C397   1.407       .  A
C397        C398   1.404       .  A
C397        F402   1.358       .  S
C398        C399   1.408       .  A
C398        F414   1.358       .  S
C399        C400   1.408       .  A
C400        F403   1.357       .  S
C401        C404   1.408       .  A
C401        C408   1.408       .  A
C404        C405   1.403       .  A
C404        F409   1.357       .  S
C405        C406   1.405       .  A
C405        F411   1.358       .  S
C406        C407   1.404       .  A
C407        C408   1.400       .  A
C407        F410   1.358       .  S
C408        F412   1.357       .  S
C415        C416   1.403       .  A
C415        C420   1.399       .  A
C415        F433   1.358       .  S
C416        C421   1.470       .  S
C416        C417   1.401       .  A
C417        C418   1.392       .  A
C417        F422   1.354       .  S
C418        C419   1.402       .  A
C418        F434   1.358       .  S
C419        C420   1.406       .  A
C420        F423   1.357       .  S
C421        C424   1.403       .  A
C421        C428   1.403       .  A
C424        C425   1.397       .  A
C424        F429   1.358       .  S
C425        C426   1.404       .  A
C425        F431   1.358       .  S
C426        C427   1.404       .  A
C427        C428   1.394       .  A
C427        F430   1.358       .  S
C428        F432   1.358       .  S
C435        C436   1.405       .  A
C435        C440   1.400       .  A
C435        F453   1.358       .  S
C436        C441   1.479       .  S
C436        C437   1.406       .  A
C437        C438   1.400       .  A
C437        F442   1.358       .  S
C438        C439   1.405       .  A
C438        F454   1.358       .  S
C439        C440   1.405       .  A
C440        F443   1.358       .  S
C441        C444   1.405       .  A
C441        C448   1.406       .  A
C444        C445   1.398       .  A
C444        F449   1.358       .  S
C445        C446   1.404       .  A
C445        F451   1.358       .  S
C446        C447   1.405       .  A
C447        C448   1.401       .  A
C447        F450   1.358       .  S
C448        F452   1.358       .  S
C455        C456   1.405       .  A
C455        C460   1.398       .  A
C455        F473   1.358       .  S
C456        C461   1.475       .  S
C456        C457   1.403       .  A
C457        C458   1.398       .  A
C457        F462   1.358       .  S
C458        C459   1.406       .  A
C458        F474   1.358       .  S
C459        C460   1.406       .  A
C460        F463   1.358       .  S
C461        C464   1.403       .  A
C461        C468   1.404       .  A
C464        C465   1.396       .  A
C464        F469   1.358       .  S
C465        C466   1.407       .  A
C465        F471   1.357       .  S
C466        C467   1.407       .  A
C467        C468   1.400       .  A
C467        F470   1.358       .  S
C468        F472   1.358       .  S
C475        C476   1.408       .  A
C475        C480   1.403       .  A
C475        F493   1.358       .  S
C476        C481   1.490       .  S
C476        C477   1.407       .  A
C477        C478   1.399       .  A
C477        F482   1.357       .  S
C478        C479   1.406       .  A
C478        F494   1.358       .  S
C479        C480   1.409       .  A
C480        F483   1.358       .  S
C481        C484   1.409       .  A
C481        C488   1.408       .  A
C484        C485   1.401       .  A
C484        F489   1.358       .  S
C485        C486   1.405       .  A
C485        F491   1.357       .  S
C486        C487   1.408       .  A
C487        C488   1.401       .  A
C487        F490   1.358       .  S
C488        F492   1.358       .  S
C495        C496   1.410       .  A
C495        C500   1.404       .  A
C495        F513   1.357       .  S
C496        C501   1.498       .  S
C496        C497   1.410       .  A
C497        C498   1.405       .  A
C497        F502   1.358       .  S
C498        C499   1.408       .  A
C498        F514   1.358       .  S
C499        C500   1.405       .  A
C500        F503   1.358       .  S
C501        C504   1.408       .  A
C501        C508   1.409       .  A
C504        C505   1.404       .  A
C504        F509   1.357       .  S
C505        C506   1.407       .  A
C505        F511   1.357       .  S
C506        C507   1.407       .  A
C507        C508   1.405       .  A
C507        F510   1.358       .  S
C508        F512   1.354       .  S
C515        C516   1.412       .  A
C515        C520   1.399       .  A
C515        F533   1.357       .  S
C516        C521   1.508       .  S
C516        C517   1.416       .  A
C517        C518   1.400       .  A
C517        F522   1.357       .  S
C518        C519   1.408       .  A
C518        F534   1.358       .  S
C519        C520   1.411       .  A
C520        F523   1.358       .  S
C521        C524   1.415       .  A
C521        C528   1.412       .  A
C524        C525   1.398       .  A
C524        F529   1.356       .  S
C525        C526   1.407       .  A
C525        F531   1.357   1_545  S
C526        C527   1.412       .  A
C527        C528   1.400       .  A
C527        F530   1.357       .  S
C528        F532   1.357       .  S
C535        C536   1.406       .  A
C535        C540   1.398       .  A
C535        F553   1.358       .  S
C536        C541   1.484       .  S
C536        C537   1.407       .  A
C537        C538   1.404       .  A
C537        F542   1.358       .  S
C538        C539   1.405       .  A
C538        F554   1.357       .  S
C539        C540   1.405       .  A
C540        F543   1.358       .  S
C541        C544   1.406       .  A
C541        C548   1.407       .  A
C544        C545   1.401       .  A
C544        F549   1.357       .  S
C545        C546   1.406       .  A
C545        F551   1.358       .  S
C546        C547   1.406       .  A
C547        C548   1.398       .  A
C547        F550   1.358       .  S
C548        F552   1.358       .  S
C555        C556   1.406       .  A
C555        C560   1.399       .  A
C555        F573   1.358       .  S
C556        C561   1.491       .  S
C556        C557   1.409       .  A
C557        C558   1.405       .  A
C557        F562   1.358       .  S
C558        C559   1.408       .  A
C558        F574   1.358       .  S
C559        C560   1.408       .  A
C560        F563   1.358       .  S
C561        C564   1.407       .  A
C561        C568   1.408       .  A
C564        C565   1.398       .  A
C564        F569   1.358       .  S
C565        C566   1.407       .  A
C565        F571   1.358       .  S
C566        C567   1.408       .  A
C567        C568   1.405       .  A
C567        F570   1.357       .  S
C568        F572   1.358       .  S
C575        C576   1.401       .  A
C575        C580   1.401       .  A
C575        F593   1.358       .  S
C576        C581   1.483       .  S
C576        C577   1.404       .  A
C577        C578   1.404       .  A
C577        F582   1.358       .  S
C578        C579   1.415       .  A
C578        F594   1.358       .  S
C579        C580   1.414       .  A
C580        F583   1.357       .  S
C581        C584   1.403       .  A
C581        C588   1.406       .  A
C584        C585   1.400       .  A
C584        F589   1.358       .  S
C585        C586   1.408       .  A
C585        F591   1.358       .  S
C586        C587   1.407       .  A
C587        C588   1.404       .  A
C587        F590   1.357       .  S
C588        F592   1.357       .  S
C595        C596   1.405       .  A
C595        C600   1.398       .  A
C595        F613   1.358       .  S
C596        C601   1.482       .  S
C596        C597   1.407       .  A
C597        C598   1.399       .  A
C597        F602   1.358       .  S
C598        C599   1.407       .  A
C598        F614   1.358       .  S
C599        C600   1.408       .  A
C600        F603   1.358       .  S
C601        C604   1.405       .  A
C601        C608   1.406       .  A
C604        C605   1.399       .  A
C604        F609   1.358       .  S
C605        C606   1.408       .  A
C605        F611   1.358       .  S
C606        C607   1.407       .  A
C607        C608   1.399       .  A
C607        F610   1.357       .  S
C608        F612   1.358       .  S
C615        C616   1.407       .  A
C615        C620   1.402       .  A
C615        F633   1.358       .  S
C616        C621   1.495       .  S
C616        C617   1.409       .  A
C617        C618   1.406       .  A
C617        F622   1.357       .  S
C618        C619   1.408       .  A
C618        F634   1.357       .  S
C619        C620   1.411       .  A
C620        F623   1.358       .  S
C621        C624   1.408       .  A
C621        C628   1.409       .  A
C624        C625   1.401       .  A
C624        F629   1.358       .  S
C625        C626   1.407       .  A
C625        F631   1.358       .  S
C626        C627   1.409       .  A
C627        C628   1.406       .  A
C627        F630   1.358       .  S
C628        F632   1.358       .  S
C635        C636   1.405       .  A
C635        C640   1.399       .  A
C635        F653   1.358       .  S
C636        C641   1.486       .  S
C636        C637   1.404       .  A
C637        C638   1.403       .  A
C637        F642   1.358       .  S
C638        C639   1.414       .  A
C638        F654   1.358       .  S
C639        C640   1.410       .  A
C640        F643   1.358       .  S
C641        C644   1.404       .  A
C641        C648   1.407       .  A
C644        C645   1.397       .  A
C644        F649   1.358       .  S
C645        C646   1.408       .  A
C645        F651   1.357       .  S
C646        C647   1.409       .  A
C647        C648   1.405       .  A
C647        F650   1.358       .  S
C648        F652   1.358       .  S
C655        C656   1.404       .  A
C655        C660   1.403       .  A
C655        F673   1.358       .  S
C656        C661   1.482       .  S
C656        C657   1.405       .  A
C657        C658   1.398       .  A
C657        F662   1.358       .  S
C658        C659   1.407       .  A
C658        F674   1.358       .  S
C659        C660   1.411       .  A
C660        F663   1.358       .  S
C661        C664   1.406       .  A
C661        C668   1.405       .  A
C664        C665   1.399       .  A
C664        F669   1.358       .  S
C665        C666   1.404       .  A
C665        F671   1.357       .  S
C666        C667   1.409       .  A
C667        C668   1.402       .  A
C667        F670   1.358       .  S
C668        F672   1.358       .  S
