geometry optimzed in LAMMPS
_audit_creation_date              2020-11-30 
_audit_creation_method            'lammps2cif' 
_symmetry_space_group_name_H-M    'P1' 
_symmetry_Int_Tables_number       1 
_symmetry_cell_setting            triclinic 
loop_ 
_symmetry_equiv_pos_as_xyz 
  x,y,z 
_cell_length_a                    51.18780735 
_cell_length_b                    51.43028279670603 
_cell_length_c                    42.42713498290599 
_cell_angle_alpha                 89.68419720426482 
_cell_angle_beta                  90.35590485593569 
_cell_angle_gamma                 120.03568205021558 
loop_ 
_atom_site_label 
_atom_site_type_symbol 
_atom_site_fract_x 
_atom_site_fract_y 
_atom_site_fract_z 
_atom_site_charge 
C1          C  0.33237413  0.16581274  0.28219721     0.47500
H2          H  0.33230998  0.16549412  0.30837274    -0.01500
C3          C  0.33345876  0.16790900  0.22091088     0.47500
H4          H  0.33331643  0.16865231  0.19480316    -0.01500
C5          C  0.30163896  0.14427668  0.26693480    -0.15200
C6          C  0.34101547  0.19676346  0.26876436    -0.15000
C7          C  0.35513147  0.15809318  0.26745356    -0.15400
C8          C  0.30251353  0.14504030  0.23446059    -0.15300
C9          C  0.34177113  0.19800809  0.23655604    -0.14900
C10         C  0.35558193  0.15886662  0.23492946    -0.15200
O11         O  0.05404813  0.01845435  0.47881102    -0.72400
O12         O  0.01813568  0.05430822  0.02079468    -0.72400
O13         O  0.02581165  0.04681680  0.46024715    -0.72500
O14         O  0.04703410  0.02646495  0.03941715    -0.72500
O15         O  0.09411221  0.06076520  0.02987567    -0.72500
O16         O  0.06015295  0.09381817  0.46941715    -0.72400
O17         O  0.06187503  0.09221284  0.03384615    -0.72400
O18         O  0.09187428  0.06200684  0.46539274    -0.72500
Ni19       Ni  0.03470946  0.03495468  0.49982453     1.25400
Ni20       Ni  0.07957627  0.07975336  0.49960134     1.25400
C21         C  0.07673755  0.03309908  0.46216972     0.89800
C22         C  0.03284244  0.07712911  0.03715316     0.89700
C23         C  0.03521443  0.07459194  0.45604338     0.89700
C24         C  0.07500938  0.03591934  0.04334123     0.89900
O25         O  0.47896694  0.03534981  0.47845508    -0.72400
O26         O  0.44327376  0.46309538  0.02097715    -0.72400
O27         O  0.45114569  0.47858601  0.46018313    -0.72500
O28         O  0.47098500  0.01973804  0.03909519    -0.72500
O29         O  0.43658751  0.03229245  0.02928691    -0.72500
O30         O  0.40381326  0.46556991  0.46860067    -0.72400
O31         O  0.40484581  0.46821573  0.03325447    -0.72400
O32         O  0.43528581  0.02954939  0.46490087    -0.72500
Ni33       Ni  0.46258443  0.99920677  0.49966942     1.25400
Ni34       Ni  0.41751420  0.99883362  0.49900334     1.25400
C35         C  0.46436681  0.04374688  0.46193608     0.89800
C36         C  0.42012794  0.45454277  0.03708504     0.89700
C37         C  0.42330918  0.46007403  0.45563822     0.89700
C38         C  0.46170835  0.03826154  0.04267844     0.89900
O39         O  0.03563203  0.47980763  0.02110223    -0.72400
O40         O  0.46265177  0.44347876  0.47969778    -0.72400
O41         O  0.47904120  0.45210765  0.04010900    -0.72500
O42         O  0.01926828  0.47130314  0.46080806    -0.72500
O43         O  0.03236936  0.43741879  0.47067992    -0.72500
O44         O  0.46606885  0.40495320  0.03198000    -0.72400
O45         O  0.46809877  0.40535767  0.46753811    -0.72400
O46         O  0.03011460  0.43648875  0.03492043    -0.72500
Ni47       Ni  0.99912894  0.46318193  0.00040279     1.25400
Ni48       Ni  0.49909634  0.41847287  0.00126138     1.25400
C49         C  0.04422815  0.46541912  0.03760140     0.89800
C50         C  0.45405528  0.42026091  0.46389842     0.89700
C51         C  0.46065750  0.42443682  0.04493968     0.89700
C52         C  0.03802481  0.46226848  0.45717320     0.89900
C53         C  0.01507248  0.11868632  0.09909353     0.04300
C54         C  0.48305975  0.10408760  0.09813667     0.04300
C55         C  0.46705360  0.07901802  0.07829639    -0.16200
C56         C  0.48161990  0.06739696  0.06023698     0.04300
C57         C  0.01449264  0.08428169  0.05915369     0.04300
C58         C  0.03012429  0.10889686  0.07913109    -0.16200
H59         H  0.05453975  0.12052015  0.07946235     0.06300
H60         H  0.44267669  0.06791363  0.07731693     0.06300
C61         C  0.39707587  0.38119977  0.10295239     0.04300
C62         C  0.37908803  0.39473573  0.09989592     0.04300
C63         C  0.38718854  0.41835155  0.07837524    -0.16200
C64         C  0.41322305  0.42924833  0.05982508     0.04300
C65         C  0.43215141  0.41551166  0.06341356     0.04300
C66         C  0.42317838  0.39163143  0.08474300    -0.16200
H67         H  0.43667902  0.38089302  0.08723123     0.06300
H68         H  0.37304812  0.42840897  0.07626192     0.06300
C69         C  0.48429426  0.10636492  0.40201651     0.04300
C70         C  0.01614330  0.12080922  0.40071011     0.04300
C71         C  0.03133542  0.10949870  0.41857452    -0.16200
C72         C  0.01586875  0.08410138  0.43785520     0.04300
C73         C  0.48304183  0.06982503  0.44018151     0.04300
C74         C  0.46823868  0.08136434  0.42186071    -0.16200
H75         H  0.44386306  0.07072080  0.42285988     0.06300
H76         H  0.05575258  0.12072135  0.41734183     0.06300
C77         C  0.37962145  0.39518475  0.39878338     0.04300
C78         C  0.39325476  0.37734980  0.40277292     0.04300
C79         C  0.41712642  0.38617093  0.42417304    -0.16200
C80         C  0.42822925  0.41267107  0.44170833     0.04300
C81         C  0.41423766  0.43127130  0.43767971     0.04300
C82         C  0.39003629  0.42161680  0.41641539    -0.16200
H83         H  0.37920196  0.43495179  0.41333855     0.06300
H84         H  0.42744216  0.37231712  0.42678359     0.06300
C85         C  0.11772466  0.01527775  0.39947660     0.04300
C86         C  0.10363586  0.48342745  0.40123301     0.04300
C87         C  0.07886687  0.46765341  0.42157428    -0.16200
C88         C  0.06705723  0.48211710  0.43936532     0.04300
C89         C  0.08366906  0.01482959  0.43994945     0.04300
C90         C  0.10783480  0.03029513  0.41934317    -0.16200
H91         H  0.11915206  0.05462170  0.41857735     0.06300
H92         H  0.06817822  0.44343668  0.42336435     0.06300
C93         C  0.10707702  0.48497725  0.09691724     0.04300
C94         C  0.12189819  0.01666937  0.09790166     0.04300
C95         C  0.11072490  0.03196830  0.07998435    -0.16200
C96         C  0.08486718  0.01668368  0.06120417     0.04300
C97         C  0.07045257  0.48402537  0.05900937     0.04300
C98         C  0.08190604  0.46916251  0.07723263    -0.16200
H99         H  0.07089228  0.44486053  0.07646776     0.06300
H100        H  0.12226448  0.05629684  0.08101190     0.06300
C101        C  0.16723581  0.33302387  0.27924413     0.47500
H102        H  0.16826252  0.33262878  0.30535188    -0.01500
C103        C  0.16454525  0.33251799  0.21793240     0.47500
H104        H  0.16410518  0.33277852  0.19177238    -0.01500
C105        C  0.14407641  0.30236480  0.26538613    -0.15200
C106        C  0.15801768  0.35517027  0.26588829    -0.15000
C107        C  0.19730193  0.34140054  0.26313644    -0.15400
C108        C  0.14307773  0.30176754  0.23290305    -0.15300
C109        C  0.15670197  0.35486199  0.23334184    -0.14900
C110        C  0.19575099  0.34101202  0.23098571    -0.15200
C111        C  0.12326973  0.45196101  0.16944959     0.14700
C112        C  0.13190474  0.43261226  0.15586373     0.01700
C113        C  0.13283398  0.43079877  0.12293788     0.16600
C114        C  0.12520857  0.44819276  0.10373494     0.26000
C115        C  0.11648470  0.46757208  0.11726598    -0.40300
C116        C  0.11545982  0.46923762  0.15027783     0.33100
C117        C  0.13839263  0.41306827  0.17597031     0.01700
F118        F  0.14098019  0.41202981  0.10947796    -0.12600
F119        F  0.10589514  0.48681407  0.16389003    -0.13100
C120        C  0.11662573  0.38265873  0.17928677     0.16600
C121        C  0.12253086  0.36386022  0.19812390     0.26000
C122        C  0.15038540  0.37511978  0.21380401    -0.40200
C123        C  0.17201268  0.40572988  0.21088917     0.33000
C124        C  0.16599006  0.42465092  0.19213768     0.14700
F125        F  0.08924182  0.37143636  0.16508187    -0.12600
F126        F  0.19884440  0.41724117  0.22624766    -0.13100
F127        F  0.09988318  0.33546886  0.20363635    -0.15400
F128        F  0.18704949  0.45419730  0.18956912    -0.13900
F129        F  0.12149945  0.45335210  0.20125453    -0.14000
F130        F  0.12638819  0.44621173  0.07192638    -0.15400
C131        C  0.16140404  0.40579716  0.33343483     0.14700
C132        C  0.13819296  0.41170347  0.32510868     0.01700
C133        C  0.12132563  0.39831898  0.29761971     0.16600
C134        C  0.12619947  0.37824832  0.28029042     0.26000
C135        C  0.15098922  0.37433547  0.28675152    -0.40300
C136        C  0.16822659  0.38802977  0.31407778     0.33100
C137        C  0.13003158  0.42998236  0.34570151     0.01700
F138        F  0.09956100  0.40418552  0.28753269    -0.12600
F139        F  0.19121199  0.38370065  0.32294236    -0.13100
C140        C  0.15220413  0.45709990  0.35943889     0.16600
C141        C  0.14385805  0.47356945  0.37897860     0.26000
C142        C  0.11327516  0.46545126  0.38197481    -0.40200
C143        C  0.09126095  0.43875449  0.36745412     0.33000
C144        C  0.09946739  0.42036759  0.35152990     0.14700
F145        F  0.18197657  0.46802189  0.35376816    -0.12600
F146        F  0.06151200  0.43021967  0.36855129    -0.13100
F147        F  0.16571360  0.99706593  0.39523926    -0.15400
F148        F  0.07724995  0.39282120  0.34220740    -0.13900
F149        F  0.17690596  0.41623632  0.36087991    -0.14000
F150        F  0.10495990  0.36088785  0.25894198    -0.15400
C151        C  0.26067918  0.33505677  0.30211309     0.14700
C152        C  0.27787356  0.36369818  0.31577296     0.01700
C153        C  0.26898386  0.38524612  0.31072734     0.16600
C154        C  0.24325292  0.37815801  0.29285535     0.26000
C155        C  0.22525122  0.34911388  0.28083509    -0.40300
C156        C  0.23449942  0.32781581  0.28484847     0.33100
C157        C  0.30450941  0.37093193  0.33594813     0.01700
F158        F  0.28479842  0.41298977  0.32375015    -0.12600
F159        F  0.21826062  0.30009725  0.27186748    -0.13100
C160        C  0.33260491  0.39680808  0.33018074     0.16600
C161        C  0.35702098  0.40462370  0.35057123     0.26000
C162        C  0.35397426  0.38641983  0.37669581    -0.40200
C163        C  0.32616316  0.36027245  0.38213173     0.33000
C164        C  0.30160639  0.35267118  0.36205597     0.14700
F165        F  0.33643816  0.41447914  0.30472624    -0.12600
F166        F  0.32249663  0.34265543  0.40756947    -0.13100
F167        F  0.38375988  0.42989955  0.34473878    -0.15400
F168        F  0.27461691  0.32809061  0.36888394    -0.13900
F169        F  0.26936900  0.31418924  0.30530901    -0.14000
F170        F  0.23634122  0.39992446  0.28663734    -0.15400
C171        C  0.07448407  0.23660808  0.30159004     0.14700
C172        C  0.08760174  0.22584723  0.32343284     0.01700
C173        C  0.11911541  0.24096531  0.32691762     0.16600
C174        C  0.13732929  0.26634989  0.30867447     0.26000
C175        C  0.12437409  0.27656372  0.28604773    -0.40300
C176        C  0.09275696  0.26178875  0.28295579     0.33100
C177        C  0.06860776  0.19879271  0.34261232     0.01700
F178        F  0.13222833  0.23106464  0.34805025    -0.12600
F179        F  0.07962349  0.27185961  0.26203825    -0.13100
C180        C  0.07032419  0.17262264  0.33839744     0.16600
C181        C  0.05321193  0.14732610  0.35723990     0.26000
C182        C  0.03426660  0.14786263  0.38079694    -0.40200
C183        C  0.03278601  0.17421267  0.38515919     0.33000
C184        C  0.04958521  0.19936458  0.36596545     0.15400
F185        F  0.08842313  0.17154095  0.31579879    -0.12600
F186        F  0.01558145  0.17580317  0.40844607    -0.13100
F187        F  0.05469842  0.12205689  0.35213730    -0.15400
F188        F  0.04797261  0.22460564  0.37072965    -0.13900
F189        F  0.04404773  0.22234517  0.29791063    -0.14000
F190        F  0.16772762  0.28026767  0.31226944    -0.15400
C191        C  0.32891702  0.38252925  0.17013018     0.14700
C192        C  0.30007907  0.36788964  0.15615093     0.01700
C193        C  0.29733342  0.36139088  0.12375331     0.16600
C194        C  0.32306418  0.37003177  0.10548080     0.26000
C195        C  0.35184399  0.38489285  0.11941448    -0.40300
C196        C  0.35461233  0.39092190  0.15188502     0.33100
C197        C  0.27303669  0.36078122  0.17498860     0.01700
F198        F  0.26978076  0.34752300  0.10964656    -0.12600
F199        F  0.38227144  0.40561931  0.16571181    -0.13100
C200        C  0.27085182  0.38400910  0.18978223     0.16600
C201        C  0.24531548  0.37759495  0.20733299     0.26000
C202        C  0.22168564  0.34789372  0.21053901    -0.40200
C203        C  0.22351034  0.32464999  0.19544145     0.33000
C204        C  0.24909080  0.33103053  0.17780783     0.14700
F205        F  0.29330845  0.41299319  0.18682250    -0.12600
F206        F  0.20085172  0.29575910  0.19843512    -0.13100
F207        F  0.24354025  0.40041556  0.22104614    -0.15400
F208        F  0.25083072  0.30815559  0.16409420    -0.13900
F209        F  0.33215084  0.38878656  0.20144107    -0.14000
F210        F  0.31996018  0.36397999  0.07413618    -0.15400
C211        C  0.04766600  0.16748501  0.17210486     0.14700
C212        C  0.07056237  0.19432645  0.15878108     0.01700
C213        C  0.07552895  0.19578408  0.12612409     0.16600
C214        C  0.05725913  0.17134843  0.10694029     0.26000
C215        C  0.03407035  0.14454146  0.12006814    -0.40300
C216        C  0.02984508  0.14260463  0.15294104     0.33100
C217        C  0.08871715  0.22133221  0.17837909     0.01700
F218        F  0.09816516  0.22102965  0.11273303    -0.12600
F219        F  0.50850606  0.11662426  0.16643306    -0.13100
C220        C  0.10600205  0.22075644  0.20393255     0.16600
C221        C  0.12421624  0.24693530  0.22117355     0.26000
C222        C  0.12497248  0.27406836  0.21361198    -0.40200
C223        C  0.10879792  0.27467224  0.18695683     0.33000
C224        C  0.09026534  0.24852299  0.17016048     0.14700
F225        F  0.10611758  0.19512671  0.21147483    -0.12600
F226        F  0.11114201  0.30056318  0.17642180    -0.13100
F227        F  0.14236442  0.24604954  0.24408103    -0.15400
F228        F  0.07374253  0.24980793  0.14564796    -0.13900
F229        F  0.04210874  0.16560657  0.20352587    -0.14000
F230        F  0.06179704  0.17413583  0.07529980    -0.15400
C231        C  0.33546767  0.25896937  0.19280927     0.14700
C232        C  0.36514125  0.27723437  0.18173637     0.01700
C233        C  0.38719768  0.26952109  0.18961806     0.16600
C234        C  0.37963692  0.24399411  0.20787992     0.26000
C235        C  0.34990721  0.22554939  0.21821918    -0.40300
C236        C  0.32797719  0.23339844  0.21099022     0.33100
C237        C  0.37300050  0.30415629  0.16196675     0.01700
F238        F  0.41594805  0.28631610  0.17906790    -0.12600
F239        F  0.29933598  0.21637448  0.22173029    -0.13100
C240        C  0.39756179  0.33246432  0.17006523     0.16600
C241        C  0.40531759  0.35757669  0.15097645     0.26000
C242        C  0.38829152  0.35496929  0.12388380    -0.40200
C243        C  0.36353736  0.32692574  0.11598982     0.33000
C244        C  0.35609005  0.30168414  0.13467534     0.14700
F245        F  0.41381791  0.33589943  0.19669681    -0.12600
F246        F  0.34710469  0.32385704  0.08960505    -0.13100
F247        F  0.42929509  0.38454470  0.15905975    -0.15400
F248        F  0.33289004  0.27462754  0.12552730    -0.13900
F249        F  0.31381137  0.26614732  0.18643036    -0.14000
F250        F  0.40143622  0.23740918  0.21568953    -0.15400
C251        C  0.38195268  0.32703772  0.33317746     0.14700
C252        C  0.36852024  0.29854555  0.34746061     0.01700
C253        C  0.36287773  0.29594076  0.38003455     0.16600
C254        C  0.37085752  0.32158719  0.39809578     0.26000
C255        C  0.38405882  0.35004677  0.38369007    -0.40300
C256        C  0.38963996  0.35258358  0.35114629     0.33100
C257        C  0.36131744  0.27181434  0.32831226     0.01700
F258        F  0.35035653  0.26868166  0.39440320    -0.12600
F259        F  0.40329535  0.37994530  0.33695465    -0.13100
C260        C  0.38464204  0.26953646  0.31369995     0.16600
C261        C  0.37798982  0.24511674  0.29429187     0.26000
C262        C  0.34795813  0.22259807  0.28925988    -0.40200
C263        C  0.32460357  0.22446251  0.30431816     0.33000
C264        C  0.33123373  0.24899799  0.32370343     0.14700
F265        F  0.41390766  0.29089017  0.31851843    -0.12600
F266        F  0.29541217  0.20280167  0.29976829    -0.13100
F267        F  0.40090642  0.24330503  0.28067431    -0.15400
F268        F  0.30833427  0.25089913  0.33736849    -0.13900
F269        F  0.38764259  0.33005859  0.30175548    -0.14000
F270        F  0.36572728  0.31871807  0.42962878    -0.15400
C271        C  0.45432840  0.12843900  0.33104383     0.14700
C272        C  0.43569205  0.13759973  0.34544896     0.01700
C273        C  0.43313452  0.13666329  0.37840306     0.16600
C274        C  0.44885244  0.12637664  0.39681260     0.26000
C275        C  0.46727352  0.11683298  0.38244018    -0.40300
C276        C  0.46977988  0.11781118  0.34938659     0.33100
C277        C  0.41557737  0.14385800  0.32601274     0.01700
F278        F  0.41498178  0.14525911  0.39261804    -0.12600
F279        F  0.48646934  0.10761883  0.33486081    -0.13100
C280        C  0.38512958  0.12173868  0.32358478     0.16600
C281        C  0.36566185  0.12631501  0.30436831     0.26000
C282        C  0.37618978  0.15328189  0.28749072    -0.40200
C283        C  0.40690868  0.17528939  0.28940263     0.33000
C284        C  0.42656590  0.17058844  0.30860210     0.14700
F285        F  0.37461354  0.09500183  0.33869346    -0.12600
F286        F  0.41789215  0.20096937  0.27226359    -0.13100
F287        F  0.33758141  0.10288828  0.29916735    -0.15400
F288        F  0.45620690  0.19191978  0.31014943    -0.13900
F289        F  0.45644533  0.12854442  0.29915105    -0.14000
F290        F  0.44625032  0.12586381  0.42867152    -0.15400
C291        C  0.40527789  0.16028911  0.16733375     0.14700
C292        C  0.41236020  0.13823073  0.17684695     0.01700
C293        C  0.40019673  0.12285571  0.20532406     0.16600
C294        C  0.37982536  0.12769864  0.22226640     0.26000
C295        C  0.37500048  0.15164019  0.21464258    -0.40300
C296        C  0.38799977  0.16782114  0.18665156     0.33100
C297        C  0.43071095  0.12991004  0.15647751     0.01700
F298        F  0.40755316  0.10263306  0.21679028    -0.12600
F299        F  0.38372240  0.19065391  0.17731031    -0.13100
C300        C  0.45677079  0.15199670  0.14096964     0.16600
C301        C  0.47275213  0.14373543  0.12057975     0.26000
C302        C  0.46525946  0.11345272  0.11810238    -0.40200
C303        C  0.43985693  0.09153683  0.13453593     0.33000
C304        C  0.42199567  0.09948347  0.15202852     0.14700
F305        F  0.46714498  0.18167028  0.14575031    -0.12600
F306        F  0.43213994  0.06214370  0.13378270    -0.13100
F307        F  0.99518746  0.16539399  0.10297694    -0.15400
F308        F  0.39574625  0.07709575  0.16402843    -0.13900
F309        F  0.41417379  0.17402288  0.13884821    -0.14000
F310        F  0.36314428  0.10721485  0.24445356    -0.15400
C311        C  0.19466242  0.07599858  0.37201829     0.14700
C312        C  0.19323505  0.07076305  0.33944434     0.01700
C313        C  0.16651679  0.04747008  0.32623129     0.16600
C314        C  0.14165520  0.02951262  0.34548595     0.26000
C315        C  0.14349291  0.03420828  0.37829567    -0.40300
C316        C  0.17021974  0.05781525  0.39125285     0.33100
C317        C  0.22033706  0.08898007  0.31996408     0.01700
F318        F  0.16480902  0.04165252  0.29488010    -0.12600
F319        F  0.17298214  0.06280638  0.42282233    -0.13100
C320        C  0.24751148  0.09019166  0.32805844     0.16600
C321        C  0.27398183  0.10926405  0.31196743     0.26000
C322        C  0.27369873  0.12613439  0.28592707    -0.40200
C323        C  0.24654477  0.12557164  0.27833897     0.33000
C324        C  0.22004391  0.10700395  0.29511577     0.14700
F325        F  0.24848352  0.07295674  0.35191233    -0.12600
F326        F  0.24596468  0.14405598  0.25573878    -0.13100
F327        F  0.29987628  0.11148069  0.32261594    -0.15400
F328        F  0.19439581  0.10742526  0.28785317    -0.13900
F329        F  0.21997469  0.09874156  0.38529794    -0.14000
F330        F  0.11586458  0.00759759  0.33213316    -0.15400
C331        C  0.23599281  0.07579763  0.19858478     0.14700
C332        C  0.22717300  0.08867424  0.17455029     0.01700
C333        C  0.24362654  0.11980806  0.16958813     0.16600
C334        C  0.26836446  0.13798915  0.18876091     0.26000
C335        C  0.27683828  0.12534215  0.21345619    -0.40300
C336        C  0.26083717  0.09396591  0.21776016     0.33100
C337        C  0.20027860  0.06981373  0.15514343     0.01700
F338        F  0.23558991  0.13258071  0.14619446    -0.12600
F339        F  0.26943869  0.08089406  0.24028086    -0.13100
C340        C  0.17402791  0.07157308  0.15915065     0.16600
C341        C  0.14848994  0.05396134  0.14076828     0.26000
C342        C  0.14896194  0.03462426  0.11777504    -0.40200
C343        C  0.17545569  0.03322313  0.11342086     0.33000
C344        C  0.20085989  0.05047367  0.13228368     0.14700
F345        F  0.17311713  0.09021822  0.18109307    -0.12600
F346        F  0.17695782  0.01579719  0.09039318    -0.13100
F347        F  0.12308832  0.05547413  0.14563770    -0.15400
F348        F  0.22626723  0.04889624  0.12778692    -0.13900
F349        F  0.22014349  0.04570892  0.20381012    -0.14000
F350        F  0.28350092  0.16806085  0.18365859    -0.15400
C351        C  0.33238201  0.16579369  0.78220680     0.47500
H352        H  0.33231722  0.16548722  0.80838217    -0.01500
C353        C  0.33347133  0.16786754  0.72092056     0.47500
H354        H  0.33332808  0.16859994  0.69481288    -0.01500
C355        C  0.30164908  0.14425134  0.76694479    -0.15200
C356        C  0.34102098  0.19673935  0.76876015    -0.15000
C357        C  0.35513817  0.15806482  0.76747949    -0.15400
C358        C  0.30252439  0.14500576  0.73446977    -0.15300
C359        C  0.34178247  0.19797481  0.73655020    -0.14900
C360        C  0.35558715  0.15882044  0.73495540    -0.15200
O361        O  0.05407884  0.01849896  0.97886353    -0.72400
O362        O  0.01811944  0.05426113  0.52076963    -0.72400
O363        O  0.02587391  0.04688907  0.96027876    -0.72500
O364        O  0.04705074  0.02644571  0.53937256    -0.72500
O365        O  0.09411772  0.06074755  0.52978789    -0.72500
O366        O  0.06021198  0.09388242  0.96948603    -0.72400
O367        O  0.06186430  0.09218266  0.53377633    -0.72400
O368        O  0.09192493  0.06205242  0.96548169    -0.72500
Ni369      Ni  0.03473220  0.03500101  0.99986101     1.25400
Ni370      Ni  0.07960582  0.07979283  0.99968121     1.25400
C371        C  0.07678682  0.03314508  0.96224694     0.89800
C372        C  0.03283423  0.07709541  0.53710730     0.89700
C373        C  0.03527869  0.07466643  0.95609550     0.89700
C374        C  0.07502991  0.03590639  0.54327258     0.89900
O375        O  0.47900843  0.03534298  0.97845529    -0.72400
O376        O  0.44330736  0.46310949  0.52100670    -0.72400
O377        O  0.45108730  0.47857409  0.96015619    -0.72500
O378        O  0.47096219  0.01972784  0.53909021    -0.72500
O379        O  0.43657362  0.03229930  0.52930225    -0.72500
O380        O  0.40375662  0.46555282  0.96859580    -0.72400
O381        O  0.40487598  0.46823036  0.53326236    -0.72400
O382        O  0.43533209  0.02954903  0.96489200    -0.72500
Ni383      Ni  0.46262157  0.99920550  0.99967957     1.25400
Ni384      Ni  0.41754752  0.99882786  0.99899059     1.25400
C385        C  0.46441446  0.04374671  0.96193600     0.89800
C386        C  0.42015870  0.45456003  0.53710965     0.89700
C387        C  0.42324934  0.46005870  0.95562138     0.89700
C388        C  0.46169343  0.03825501  0.54268917     0.89900
O389        O  0.03561843  0.47980853  0.52114671    -0.72400
O390        O  0.46260602  0.44346996  0.97966245    -0.72400
O391        O  0.47906538  0.45212022  0.54015232    -0.72500
O392        O  0.01923333  0.47128614  0.96077300    -0.72500
O393        O  0.03234255  0.43740641  0.97063287    -0.72500
O394        O  0.46609059  0.40496530  0.53202524    -0.72400
O395        O  0.46804145  0.40534227  0.96749654    -0.72400
O396        O  0.03008935  0.43648387  0.53496492    -0.72500
Ni397      Ni  0.99913367  0.46318503  0.50042176     1.25400
Ni398      Ni  0.49913559  0.41848944  0.50132687     1.25400
C399        C  0.04419868  0.46541362  0.53765571     0.89800
C400        C  0.45399944  0.42024765  0.96386803     0.89700
C401        C  0.46067958  0.42444976  0.54498287     0.89700
C402        C  0.03798856  0.46225258  0.95712402     0.89900
C403        C  0.01511437  0.11865591  0.59908904     0.04300
C404        C  0.48308856  0.10403316  0.59822923     0.04300
C405        C  0.46706354  0.07897755  0.57837625    -0.16200
C406        C  0.48161557  0.06737701  0.56026280     0.04300
C407        C  0.01449867  0.08425803  0.55911790     0.04300
C408        C  0.03014745  0.10887329  0.57909201    -0.16200
H409        H  0.05456404  0.12049747  0.57940040     0.06300
H410        H  0.44268456  0.06786786  0.57743042     0.06300
C411        C  0.39709873  0.38122769  0.60300623     0.04300
C412        C  0.37912868  0.39478340  0.59995868     0.04300
C413        C  0.38722946  0.41839462  0.57843013    -0.16200
C414        C  0.41325307  0.42927308  0.55986483     0.04300
C415        C  0.43217411  0.41552850  0.56345634     0.04300
C416        C  0.42319663  0.39164861  0.58479018    -0.16200
H417        H  0.43668899  0.38090112  0.58727495     0.06300
H418        H  0.37309656  0.42846065  0.57632040     0.06300
C419        C  0.48436396  0.10640128  0.90205634     0.04300
C420        C  0.01620428  0.12090531  0.90079186     0.04300
C421        C  0.03140191  0.10960420  0.91866416    -0.16200
C422        C  0.01593554  0.08418507  0.93791642     0.04300
C423        C  0.48309899  0.06983762  0.94019704     0.04300
C424        C  0.46830209  0.08138540  0.92188004    -0.16200
H425        H  0.44392536  0.07073490  0.92286465     0.06300
H426        H  0.05582095  0.12084466  0.91745142     0.06300
C427        C  0.37956896  0.39516636  0.89875994     0.04300
C428        C  0.39319394  0.37732521  0.90276262     0.04300
C429        C  0.41706073  0.38614803  0.92416609    -0.16200
C430        C  0.42816598  0.41265315  0.94169207     0.04300
C431        C  0.41417500  0.43125347  0.93766299     0.04300
C432        C  0.38997768  0.42159842  0.91639320    -0.16200
H433        H  0.37914584  0.43493498  0.91330902     0.06300
H434        H  0.42737459  0.37229300  0.92678289     0.06300
C435        C  0.11780284  0.01532315  0.89958203     0.04300
C436        C  0.10358599  0.48341015  0.90116454     0.04300
C437        C  0.07882630  0.46763893  0.92151801    -0.16200
C438        C  0.06701117  0.48210143  0.93930014     0.04300
C439        C  0.08373497  0.01487687  0.94003826     0.04300
C440        C  0.10792068  0.03034279  0.91945546    -0.16200
H441        H  0.11925246  0.05467056  0.91870371     0.06300
H442        H  0.06815150  0.44342481  0.92332945     0.06300
C443        C  0.10702082  0.48495259  0.59698625     0.04300
C444        C  0.12192636  0.01666521  0.59784689     0.04300
C445        C  0.11076156  0.03196516  0.57991367    -0.16200
C446        C  0.08490245  0.01667882  0.56113116     0.04300
C447        C  0.07040462  0.48401249  0.55908111     0.04300
C448        C  0.08184271  0.46914248  0.57731236    -0.16200
H449        H  0.07081663  0.44483939  0.57655479     0.06300
H450        H  0.12230208  0.05629368  0.58093833     0.06300
C451        C  0.16725023  0.33302200  0.77922890     0.47500
H452        H  0.16828649  0.33262676  0.80533640    -0.01500
C453        C  0.16454072  0.33251421  0.71791657     0.47500
H454        H  0.16409804  0.33277963  0.69175716    -0.01500
C455        C  0.14408845  0.30236771  0.76537214    -0.15200
C456        C  0.15802818  0.35516612  0.76588425    -0.15000
C457        C  0.19730462  0.34138941  0.76310723    -0.15400
C458        C  0.14307842  0.30176377  0.73288923    -0.15300
C459        C  0.15670571  0.35485866  0.73333930    -0.14900
C460        C  0.19574564  0.34100476  0.73095984    -0.15200
C461        C  0.12327810  0.45198859  0.66951773     0.14700
C462        C  0.13184153  0.43258579  0.65593007     0.01700
C463        C  0.13269752  0.43071479  0.62300487     0.16600
C464        C  0.12507434  0.44810836  0.60380233     0.26000
C465        C  0.11642202  0.46754279  0.61733371    -0.40300
C466        C  0.11546500  0.46926193  0.65034637     0.33100
C467        C  0.13834058  0.41305122  0.67603384     0.01700
F468        F  0.14077794  0.41189507  0.60954585    -0.12600
F469        F  0.10596400  0.48688874  0.66396222    -0.13100
C470        C  0.11661155  0.38262210  0.67928696     0.16600
C471        C  0.12253563  0.36382876  0.69810626     0.26000
C472        C  0.15037614  0.37511045  0.71381679    -0.40200
C473        C  0.17196562  0.40573772  0.71096565     0.33000
C474        C  0.16591946  0.42465645  0.69224187     0.14700
F475        F  0.08924385  0.37137391  0.66503948    -0.12600
F476        F  0.19878275  0.41726614  0.72635705    -0.13100
F477        F  0.09991295  0.33541728  0.70357941    -0.15400
F478        F  0.18694214  0.45421977  0.68973017    -0.13900
F479        F  0.12157704  0.45343424  0.70132497    -0.14000
F480        F  0.12618905  0.44607434  0.57199355    -0.15400
C481        C  0.16138654  0.40578446  0.83342694     0.14700
C482        C  0.13815521  0.41166160  0.82510554     0.01700
C483        C  0.12127824  0.39825436  0.79762858     0.16600
C484        C  0.12617499  0.37820190  0.78029404     0.26000
C485        C  0.15098033  0.37431337  0.78675316    -0.40300
C486        C  0.16821533  0.38801679  0.81407823     0.33100
C487        C  0.12999148  0.42994440  0.84568608     0.01700
F488        F  0.09948835  0.40408853  0.78755338    -0.12600
F489        F  0.19120553  0.38369825  0.82294908    -0.13100
C490        C  0.15216212  0.45708781  0.85937819     0.16600
C491        C  0.14381633  0.47356532  0.87890476     0.26000
C492        C  0.11323000  0.46542968  0.88192056    -0.40200
C493        C  0.09121652  0.43870754  0.86743809     0.33000
C494        C  0.09942809  0.42031336  0.85153804     0.14700
F495        F  0.18193170  0.46802794  0.85367220    -0.12600
F496        F  0.06146351  0.43015511  0.86854767    -0.13100
F497        F  0.16579114  0.99712129  0.89530509    -0.15400
F498        F  0.07721744  0.39274830  0.84225500    -0.13900
F499        F  0.17690711  0.41625855  0.86085701    -0.14000
F500        F  0.10494974  0.36084246  0.75893179    -0.15400
C501        C  0.26074932  0.33506882  0.80193133     0.14700
C502        C  0.27791085  0.36368782  0.81564682     0.01700
C503        C  0.26898165  0.38521472  0.81068354     0.16600
C504        C  0.24323956  0.37812639  0.79283863     0.26000
C505        C  0.22525759  0.34909565  0.78078382    -0.40300
C506        C  0.23454720  0.32782002  0.78470874     0.33100
C507        C  0.30453364  0.37091091  0.83582738     0.01700
F508        F  0.28476690  0.41293487  0.82376404    -0.12600
F509        F  0.21832683  0.30011820  0.77168530    -0.13100
C510        C  0.33261692  0.39681782  0.83011305     0.16600
C511        C  0.35700928  0.40463566  0.85053657     0.26000
C512        C  0.35394421  0.38641030  0.87664758    -0.40200
C513        C  0.32614155  0.36023795  0.88203386     0.33000
C514        C  0.30161377  0.35262538  0.86191488     0.14700
F515        F  0.33645692  0.41452081  0.80468522    -0.12600
F516        F  0.32245188  0.34260764  0.90746594    -0.13100
F517        F  0.38374110  0.42993578  0.84475206    -0.15400
F518        F  0.27463067  0.32801176  0.86868442    -0.13900
F519        F  0.26948761  0.31423085  0.80504202    -0.14000
F520        F  0.23630356  0.39988324  0.78666985    -0.15400
C521        C  0.07450833  0.23670713  0.80168290     0.14700
C522        C  0.08763268  0.22592750  0.82349597     0.01700
C523        C  0.11915232  0.24099740  0.82691475     0.16600
C524        C  0.13736323  0.26635438  0.80863875     0.26000
C525        C  0.12439660  0.27658220  0.78604308    -0.40300
C526        C  0.09277893  0.26185547  0.78300978     0.33100
C527        C  0.06864304  0.19888198  0.84268530     0.01700
F528        F  0.13227413  0.23107391  0.84801031    -0.12600
F529        F  0.07964498  0.27194371  0.76211310    -0.13100
C530        C  0.07037853  0.17272126  0.83848713     0.16600
C531        C  0.05328263  0.14743269  0.85734096     0.26000
C532        C  0.03432188  0.14796137  0.88088345    -0.40200
C533        C  0.03280920  0.17429737  0.88522075     0.33000
C534        C  0.04960217  0.19944707  0.86602148     0.15400
F535        F  0.08847534  0.17163835  0.81588646    -0.12600
F536        F  0.01557594  0.17587474  0.90848399    -0.13100
F537        F  0.05479418  0.12217464  0.85225720    -0.15400
F538        F  0.04796082  0.22467608  0.87075963    -0.13900
F539        F  0.04406757  0.22248966  0.79806507    -0.14000
F540        F  0.16776678  0.28022817  0.81216548    -0.15400
C541        C  0.32898579  0.38262871  0.67020279     0.14700
C542        C  0.30014084  0.36793960  0.65624014     0.01700
C543        C  0.29738543  0.36140779  0.62385068     0.16600
C544        C  0.32310986  0.37005231  0.60556979     0.26000
C545        C  0.35189485  0.38495449  0.61948610    -0.40300
C546        C  0.35467687  0.39102787  0.65194738     0.33100
C547        C  0.27309384  0.36081427  0.67507449     0.01700
F548        F  0.26982636  0.34750371  0.60975827    -0.12600
F549        F  0.38234340  0.40577033  0.66575367    -0.13100
C550        C  0.27087789  0.38403363  0.68984614     0.16600
C551        C  0.24530952  0.37760636  0.70734198     0.26000
C552        C  0.22168290  0.34790118  0.71051863    -0.40200
C553        C  0.22354208  0.32466448  0.69545275     0.33000
C554        C  0.24915381  0.33105754  0.67787340     0.14700
F555        F  0.29333237  0.41302163  0.68691496    -0.12600
F556        F  0.20088805  0.29576919  0.69842884    -0.13100
F557        F  0.24350129  0.40041630  0.72103725    -0.15400
F558        F  0.25092757  0.30818942  0.66418973    -0.13900
F559        F  0.33223056  0.38892597  0.70150491    -0.14000
F560        F  0.31999398  0.36396388  0.57423338    -0.15400
C561        C  0.04774941  0.16743158  0.67210837     0.14700
C562        C  0.07061318  0.19429215  0.65878124     0.01700
C563        C  0.07556370  0.19575965  0.62611958     0.16600
C564        C  0.05729849  0.17132234  0.60693498     0.26000
C565        C  0.03413081  0.14450342  0.62006550    -0.40300
C566        C  0.02993742  0.14254944  0.65294275     0.33100
C567        C  0.08875108  0.22130497  0.67837957     0.01700
F568        F  0.09817744  0.22101799  0.61272331    -0.12600
F569        F  0.50866276  0.11655775  0.66649743    -0.13100
C570        C  0.10603001  0.22074385  0.70394717     0.16600
C571        C  0.12422968  0.24692906  0.72118502     0.26000
C572        C  0.12498226  0.27405699  0.71360436    -0.40200
C573        C  0.10882509  0.27464947  0.68692789     0.33000
C574        C  0.09029617  0.24849142  0.67014311     0.14700
F575        F  0.10615925  0.19512400  0.71150452    -0.12600
F576        F  0.11119075  0.30053789  0.67635165    -0.13100
F577        F  0.14237948  0.24605679  0.74409870    -0.15400
F578        F  0.07377727  0.24976586  0.64562069    -0.13900
F579        F  0.04221027  0.16553554  0.70353413    -0.14000
F580        F  0.06181814  0.17412125  0.57529197    -0.15400
C581        C  0.33545334  0.25892117  0.69278510     0.14700
C582        C  0.36512525  0.27719453  0.68171195     0.01700
C583        C  0.38718452  0.26948141  0.68958173     0.16600
C584        C  0.37962954  0.24394875  0.70783471     0.26000
C585        C  0.34990674  0.22550891  0.71819759    -0.40300
C586        C  0.32797312  0.23335676  0.71097667     0.33100
C587        C  0.37298487  0.30413363  0.66196655     0.01700
F588        F  0.41593392  0.28628657  0.67903247    -0.12600
F589        F  0.29933808  0.21633844  0.72173546    -0.13100
C590        C  0.39752224  0.33244225  0.67010791     0.16600
C591        C  0.40528337  0.35757329  0.65104479     0.26000
C592        C  0.38829345  0.35498191  0.62392650    -0.40200
C593        C  0.36355837  0.32693770  0.61599292     0.33000
C594        C  0.35609973  0.30168022  0.63465988     0.14700
F595        F  0.41375083  0.33585799  0.69675627    -0.12600
F596        F  0.34715617  0.32388466  0.58958765    -0.13100
F597        F  0.42923304  0.38454246  0.65917589    -0.15400
F598        F  0.33291532  0.27462737  0.62547900    -0.13900
F599        F  0.31378980  0.26608762  0.68640042    -0.14000
F600        F  0.40142907  0.23735631  0.71561812    -0.15400
C601        C  0.38192323  0.32699573  0.83318989     0.14700
C602        C  0.36849782  0.29850694  0.84748112     0.01700
C603        C  0.36284218  0.29591012  0.88005336     0.16600
C604        C  0.37079985  0.32155982  0.89810189     0.26000
C605        C  0.38400129  0.35001618  0.88368790    -0.40300
C606        C  0.38959562  0.35254486  0.85114717     0.33100
C607        C  0.36130361  0.27177269  0.82833689     0.01700
F608        F  0.35033016  0.26865703  0.89443392    -0.12600
F609        F  0.40324930  0.37990243  0.83694692    -0.13100
C610        C  0.38462935  0.26951763  0.81369302     0.16600
C611        C  0.37798167  0.24510656  0.79427136     0.26000
C612        C  0.34795354  0.22257537  0.78925190    -0.40200
C613        C  0.32459789  0.22441526  0.80434229     0.33000
C614        C  0.33122361  0.24893967  0.82374511     0.14700
F615        F  0.41389260  0.29088608  0.81849257    -0.12600
F616        F  0.29540888  0.20274175  0.79980726    -0.13100
F617        F  0.40089953  0.24331124  0.78063163    -0.15400
F618        F  0.30832195  0.25081526  0.83744131    -0.13900
F619        F  0.38761967  0.33001041  0.80176933    -0.14000
F620        F  0.36564680  0.31869724  0.92963103    -0.15400
C621        C  0.45438294  0.12844746  0.83107230     0.14700
C622        C  0.43569534  0.13754890  0.84546975     0.01700
C623        C  0.43312150  0.13659602  0.87842304     0.16600
C624        C  0.44887798  0.12635804  0.89683874     0.26000
C625        C  0.46734406  0.11686617  0.88247385    -0.40300
C626        C  0.46986513  0.11785765  0.84942115     0.33100
C627        C  0.41557987  0.14380329  0.82602640     0.01700
F628        F  0.41491949  0.14513286  0.89263206    -0.12600
F629        F  0.48659276  0.10770719  0.83490057    -0.13100
C630        C  0.38511960  0.12170767  0.82363843     0.16600
C631        C  0.36565259  0.12629160  0.80442763     0.26000
C632        C  0.37619025  0.15324862  0.78752630    -0.40200
C633        C  0.40692077  0.17522968  0.78939709     0.33000
C634        C  0.42657911  0.17051531  0.80857997     0.14700
F635        F  0.37458959  0.09498135  0.83877337    -0.12600
F636        F  0.41791383  0.20089605  0.77223187    -0.13100
F637        F  0.33756638  0.10287022  0.79923984    -0.15400
F638        F  0.45623269  0.19181762  0.81007877    -0.13900
F639        F  0.45652120  0.12857144  0.79918080    -0.14000
F640        F  0.44626267  0.12583445  0.92869668    -0.15400
C641        C  0.40526348  0.16014640  0.66739168     0.14700
C642        C  0.41237405  0.13812366  0.67696835     0.01700
C643        C  0.40021173  0.12278193  0.70545918     0.16600
C644        C  0.37981924  0.12762596  0.72235782     0.26000
C645        C  0.37498878  0.15155629  0.71468659    -0.40300
C646        C  0.38797972  0.16769795  0.68667481     0.33100
C647        C  0.43075668  0.12981074  0.65664532     0.01700
F648        F  0.40759284  0.10259560  0.71698270    -0.12600
F649        F  0.38369636  0.19051492  0.67728443    -0.13100
C650        C  0.45680466  0.15190749  0.64113240     0.16600
C651        C  0.47278853  0.14366159  0.62073157     0.26000
C652        C  0.46530997  0.11338419  0.61824476    -0.40200
C653        C  0.43993560  0.09145886  0.63470606     0.33000
C654        C  0.42207424  0.09938911  0.65222257     0.14700
F655        F  0.46715563  0.18157754  0.64590932    -0.12600
F656        F  0.43223953  0.06207165  0.63394226    -0.13100
F657        F  0.99522369  0.16535528  0.60310531    -0.15400
F658        F  0.39585158  0.07699032  0.66425837    -0.13900
F659        F  0.41414667  0.17383147  0.63888161    -0.14000
F660        F  0.36312598  0.10715329  0.74454801    -0.15400
C661        C  0.19474468  0.07599985  0.87209748     0.14700
C662        C  0.19328363  0.07077872  0.83951657     0.01700
C663        C  0.16653912  0.04751703  0.82631295     0.16600
C664        C  0.14168700  0.02957389  0.84558151     0.26000
C665        C  0.14355988  0.03425031  0.87839400    -0.40300
C666        C  0.17030876  0.05782863  0.89134475     0.33100
C667        C  0.22037289  0.08897806  0.82001455     0.01700
F668        F  0.16479625  0.04171305  0.79495639    -0.12600
F669        F  0.17309860  0.06279858  0.92291789    -0.13100
C670        C  0.24755322  0.09020194  0.82810587     0.16600
C671        C  0.27401482  0.10927248  0.81200510     0.26000
C672        C  0.27371429  0.12610992  0.78594159    -0.40200
C673        C  0.24655127  0.12552345  0.77834377     0.33000
C674        C  0.22006081  0.10696838  0.79513976     0.14700
F675        F  0.24854124  0.07298223  0.85196727    -0.12600
F676        F  0.24595306  0.14397924  0.75572046    -0.13100
F677        F  0.29991858  0.11152797  0.82267702    -0.15400
F678        F  0.19440446  0.10736980  0.78786705    -0.13900
F679        F  0.22008159  0.09871518  0.88537153    -0.14000
F680        F  0.11587020  0.00768931  0.83224049    -0.15400
C681        C  0.23600354  0.07576689  0.69858244     0.14700
C682        C  0.22717040  0.08864836  0.67456424     0.01700
C683        C  0.24362267  0.11978420  0.66961115     0.16600
C684        C  0.26837209  0.13796018  0.68877391     0.26000
C685        C  0.27684890  0.12530932  0.71346296    -0.40300
C686        C  0.26084891  0.09393258  0.71775958     0.33100
C687        C  0.20027876  0.06978796  0.65514839     0.01700
F688        F  0.23557859  0.13256373  0.64623144    -0.12600
F689        F  0.26945428  0.08085800  0.74027343    -0.13100
C690        C  0.17402422  0.07154427  0.65914155     0.16600
C691        C  0.14849789  0.05394483  0.64073555     0.26000
C692        C  0.14898153  0.03461591  0.61773896    -0.40200
C693        C  0.17547368  0.03320502  0.61341265     0.33000
C694        C  0.20086862  0.05045071  0.63229064     0.14700
F695        F  0.17309676  0.09017162  0.68109529    -0.12600
F696        F  0.17698292  0.01577017  0.59040018    -0.13100
F697        F  0.12309334  0.05545564  0.64559069    -0.15400
F698        F  0.22627638  0.04886999  0.62781178    -0.13900
F699        F  0.22016862  0.04567475  0.70378783    -0.14000
F700        F  0.28351907  0.16803108  0.68366646    -0.15400
C701        C  0.33239180  0.66580453  0.28223139     0.47500
H702        H  0.33233567  0.66550580  0.30840698    -0.01500
C703        C  0.33345824  0.66785861  0.22094401     0.47500
H704        H  0.33330396  0.66858366  0.19483631    -0.01500
C705        C  0.30164870  0.64427073  0.26698431    -0.15200
C706        C  0.34104118  0.69674985  0.26877544    -0.15000
C707        C  0.35513115  0.65805455  0.26749860    -0.15400
C708        C  0.30250941  0.64501595  0.23450867    -0.15300
C709        C  0.34178936  0.69797423  0.23656602    -0.14900
C710        C  0.35557136  0.65880173  0.23497268    -0.15200
O711        O  0.05406081  0.51846111  0.47885393    -0.72400
O712        O  0.01811781  0.55425900  0.02076165    -0.72400
O713        O  0.02586913  0.54685657  0.46025594    -0.72500
O714        O  0.04704479  0.52643804  0.03936271    -0.72500
O715        O  0.09411272  0.56073815  0.02977603    -0.72500
O716        O  0.06020978  0.59385031  0.46945527    -0.72400
O717        O  0.06186569  0.59217344  0.03377356    -0.72400
O718        O  0.09191156  0.56201073  0.46546680    -0.72500
Ni719      Ni  0.03472302  0.53497471  0.49984381     1.25400
Ni720      Ni  0.07959996  0.57976378  0.49965755     1.25400
C721        C  0.07676915  0.53310303  0.46223729     0.89800
C722        C  0.03283605  0.57708722  0.03710573     0.89700
C723        C  0.03527616  0.57463321  0.45606640     0.89700
C724        C  0.07502438  0.53589851  0.04326198     0.89900
O725        O  0.47902936  0.53534944  0.47845329    -0.72400
O726        O  0.44330740  0.96310414  0.02100727    -0.72400
O727        O  0.45108926  0.97858858  0.46016907    -0.72500
O728        O  0.47096665  0.51972305  0.03907483    -0.72500
O729        O  0.43657691  0.53229309  0.02929024    -0.72500
O730        O  0.40375569  0.96555651  0.46861064    -0.72400
O731        O  0.40486924  0.96821515  0.03326185    -0.72400
O732        O  0.43535660  0.52957002  0.46489821    -0.72500
Ni733      Ni  0.46263272  0.49921186  0.49967899     1.25400
Ni734      Ni  0.41756283  0.49884341  0.49899173     1.25400
C735        C  0.46443936  0.54376447  0.46194268     0.89800
C736        C  0.42015527  0.95454738  0.03710642     0.89700
C737        C  0.42325275  0.96007255  0.45562891     0.89700
C738        C  0.46169730  0.53824980  0.04267637     0.89900
O739        O  0.03562926  0.97983708  0.02115116    -0.72400
O740        O  0.46259828  0.94347796  0.47967816    -0.72400
O741        O  0.47905992  0.95209806  0.04013531    -0.72500
O742        O  0.01924468  0.97129733  0.46077451    -0.72500
O743        O  0.03235809  0.93742071  0.47063686    -0.72500
O744        O  0.46608175  0.90494293  0.03200348    -0.72400
O745        O  0.46803741  0.90535407  0.46750687    -0.72400
O746        O  0.03009949  0.93651003  0.03495877    -0.72500
Ni747      Ni  0.99914711  0.96321920  0.00042120     1.25400
Ni748      Ni  0.49912149  0.91846521  0.00130060     1.25400
C749        C  0.04420821  0.96543897  0.03765673     0.89800
C750        C  0.45399854  0.92026188  0.46387466     0.89700
C751        C  0.46067223  0.92442766  0.04496276     0.89700
C752        C  0.03800183  0.96226555  0.45712661     0.89900
C753        C  0.01512888  0.61862629  0.09911540     0.04300
C754        C  0.48309411  0.60403708  0.09821403     0.04300
C755        C  0.46706824  0.57897541  0.07836628    -0.16200
C756        C  0.48161974  0.56737343  0.06025117     0.04300
C757        C  0.01450500  0.58424250  0.05912688     0.04300
C758        C  0.03015813  0.60884963  0.07910780    -0.16200
H759        H  0.05457453  0.62047353  0.07941174     0.06300
H760        H  0.44268936  0.56786262  0.07742494     0.06300
C761        C  0.39708594  0.88119092  0.10297189     0.04300
C762        C  0.37911892  0.89475184  0.09993750     0.04300
C763        C  0.38722316  0.91837030  0.07841695    -0.16200
C764        C  0.41324776  0.92925335  0.05985237     0.04300
C765        C  0.43216627  0.91550516  0.06343476     0.04300
C766        C  0.42318420  0.89161630  0.08475613    -0.16200
H767        H  0.43667501  0.88086648  0.08723342     0.06300
H768        H  0.37309399  0.92844101  0.07631557     0.06300
C769        C  0.48438961  0.60643812  0.40208739     0.04300
C770        C  0.01621186  0.62087597  0.40076172     0.04300
C771        C  0.03140504  0.60956956  0.41863153    -0.16200
C772        C  0.01593493  0.58415061  0.43788333     0.04300
C773        C  0.48312702  0.56986570  0.44021451     0.04300
C774        C  0.46832971  0.58141811  0.42190599    -0.16200
H775        H  0.44395282  0.57076547  0.42289016     0.06300
H776        H  0.05582408  0.62080769  0.41741925     0.06300
C777        C  0.37961723  0.89521987  0.39871069     0.04300
C778        C  0.39325075  0.87738633  0.40270247     0.04300
C779        C  0.41710251  0.88619650  0.42412269    -0.16200
C780        C  0.42818249  0.91268140  0.44167840     0.04300
C781        C  0.41418943  0.93127995  0.43765230     0.04300
C782        C  0.39000877  0.92163909  0.41636210    -0.16200
H783        H  0.37917190  0.93497149  0.41328306     0.06300
H784        H  0.42741961  0.87234397  0.42673521     0.06300
C785        C  0.11778269  0.51528494  0.39957510     0.04300
C786        C  0.10359319  0.98342260  0.40115936     0.04300
C787        C  0.07883458  0.96765088  0.42151326    -0.16200
C788        C  0.06702299  0.98211400  0.43930043     0.04300
C789        C  0.08371311  0.51483254  0.44003145     0.04300
C790        C  0.10789535  0.53030006  0.41944664    -0.16200
H791        H  0.11922142  0.55462737  0.41869342     0.06300
H792        H  0.06815734  0.94343595  0.42331851     0.06300
C793        C  0.10703195  0.98496691  0.09698269     0.04300
C794        C  0.12192729  0.51667946  0.09784460     0.04300
C795        C  0.11075255  0.53196952  0.07991211    -0.16200
C796        C  0.08489974  0.51667560  0.06112322     0.04300
C797        C  0.07041298  0.98403337  0.05908560     0.04300
C798        C  0.08185273  0.96915992  0.07730977    -0.16200
H799        H  0.07083032  0.94485741  0.07654407     0.06300
H800        H  0.12227919  0.55629741  0.08094515     0.06300
C801        C  0.16723713  0.83302786  0.27923161     0.47500
H802        H  0.16826157  0.83262958  0.30533889    -0.01500
C803        C  0.16454896  0.83250413  0.21791931     0.47500
H804        H  0.16411422  0.83276188  0.19175955    -0.01500
C805        C  0.14408874  0.80236755  0.26537873    -0.15200
C806        C  0.15801099  0.85516423  0.26586958    -0.15000
C807        C  0.19730171  0.84140543  0.26312689    -0.15400
C808        C  0.14308891  0.80175333  0.23289680    -0.15300
C809        C  0.15669973  0.85484738  0.23332194    -0.14900
C810        C  0.19575540  0.84101372  0.23097746    -0.15200
C811        C  0.12329039  0.95196471  0.16948214     0.14700
C812        C  0.13189891  0.93260336  0.15587636     0.01700
C813        C  0.13278313  0.93077254  0.12294877     0.16600
C814        C  0.12514237  0.94816404  0.10376312     0.26000
C815        C  0.11644479  0.96755590  0.11731356    -0.40300
C816        C  0.11546356  0.96923825  0.15032744     0.33100
C817        C  0.13839588  0.91305651  0.17596457     0.01700
F818        F  0.14090188  0.91198984  0.10947079    -0.12600
F819        F  0.10592731  0.98682989  0.16395891    -0.13100
C820        C  0.11665750  0.88263005  0.17921437     0.16600
C821        C  0.12256422  0.86382941  0.19804311     0.26000
C822        C  0.15039352  0.87510325  0.21377566    -0.40200
C823        C  0.17199551  0.90572652  0.21092171     0.33000
C824        C  0.16596937  0.92465103  0.19218219     0.14700
F825        F  0.08929395  0.87139352  0.16496046    -0.12600
F826        F  0.19880389  0.91724596  0.22632957    -0.13100
F827        F  0.09993158  0.83542148  0.20351045    -0.15400
F828        F  0.18700267  0.95421107  0.18967246    -0.13900
F829        F  0.12155649  0.95336667  0.20129035    -0.14000
F830        F  0.12628556  0.94617146  0.07195214    -0.15400
C831        C  0.16135282  0.90576990  0.33342415     0.14700
C832        C  0.13816210  0.91169531  0.32507055     0.01700
C833        C  0.12131843  0.89833102  0.29756501     0.16600
C834        C  0.12620216  0.87826761  0.28023337     0.26000
C835        C  0.15097131  0.87432760  0.28672790    -0.40300
C836        C  0.16817564  0.88799405  0.31408250     0.33100
C837        C  0.12999660  0.92997449  0.34565321     0.01700
F838        F  0.09956798  0.90421268  0.28746387    -0.12600
F839        F  0.19112769  0.88363071  0.32299352    -0.13100
C840        C  0.15216795  0.95709526  0.35938385     0.16600
C841        C  0.14382059  0.97356933  0.37891376     0.26000
C842        C  0.11323599  0.96544430  0.38191274    -0.40200
C843        C  0.09122252  0.93874059  0.36740265     0.33000
C844        C  0.09943176  0.92035715  0.35147681     0.14700
F845        F  0.18194019  0.96801585  0.35371246    -0.12600
F846        F  0.06147185  0.93019769  0.36850936    -0.13100
F847        F  0.16575047  0.49705346  0.39531894    -0.15400
F848        F  0.07721698  0.89281420  0.34214184    -0.13900
F849        F  0.17683628  0.91620259  0.36088064    -0.14000
F850        F  0.10498971  0.86094207  0.25884470    -0.15400
C851        C  0.26072950  0.83507246  0.30197554     0.14700
C852        C  0.27788865  0.86368786  0.31569718     0.01700
C853        C  0.26895305  0.88521154  0.31075402     0.16600
C854        C  0.24321110  0.87812771  0.29291043     0.26000
C855        C  0.22524433  0.84910672  0.28082305    -0.40300
C856        C  0.23453636  0.82783194  0.28473967     0.33100
C857        C  0.30452809  0.87091873  0.33584998     0.01700
F858        F  0.28473844  0.91292639  0.32384683    -0.12600
F859        F  0.21832758  0.80013941  0.27169282    -0.13100
C860        C  0.33261307  0.89680508  0.33008212     0.16600
C861        C  0.35702778  0.90463654  0.35047761     0.26000
C862        C  0.35397773  0.88644761  0.37661710    -0.40200
C863        C  0.32617324  0.86029308  0.38205435     0.33000
C864        C  0.30162588  0.85266461  0.36195973     0.14700
F865        F  0.33643008  0.91447497  0.30463071    -0.12600
F866        F  0.32250423  0.84269633  0.40751104    -0.13100
F867        F  0.38376464  0.92991262  0.34463896    -0.15400
F868        F  0.27464315  0.82806878  0.36877277    -0.13900
F869        F  0.26946485  0.81423252  0.30508816    -0.14000
F870        F  0.23626631  0.89988257  0.28676793    -0.15400
C871        C  0.07451624  0.73669004  0.30167841     0.14700
C872        C  0.08764493  0.72591188  0.32348761     0.01700
C873        C  0.11916422  0.74098812  0.32690858     0.16600
C874        C  0.13737078  0.76635478  0.30864299     0.26000
C875        C  0.12440008  0.77658312  0.28605252    -0.40300
C876        C  0.09278252  0.76184727  0.28301457     0.33100
C877        C  0.06865866  0.69886455  0.34267502     0.01700
F878        F  0.13228987  0.73105929  0.34799308    -0.12600
F879        F  0.07964504  0.77193258  0.26211890    -0.13100
C880        C  0.07036699  0.67269266  0.33844506     0.16600
C881        C  0.05326998  0.64740070  0.35729478     0.26000
C882        C  0.03433418  0.64793692  0.38086190    -0.40200
C883        C  0.03284756  0.67428335  0.38522975     0.33000
C884        C  0.04964569  0.69943859  0.36603893     0.15400
F885        F  0.08843757  0.67160237  0.31581786    -0.12600
F886        F  0.01563167  0.67586297  0.40851124    -0.13100
F887        F  0.05475162  0.62213069  0.35218078    -0.15400
F888        F  0.04803544  0.72468041  0.37080947    -0.13900
F889        F  0.04407574  0.72246134  0.29805401    -0.14000
F890        F  0.16777460  0.78023387  0.31216893    -0.15400
C891        C  0.32898353  0.88252010  0.17021557     0.14700
C892        C  0.30014251  0.86792297  0.15624109     0.01700
C893        C  0.29738515  0.86147331  0.12383198     0.16600
C894        C  0.32310468  0.87010880  0.10554547     0.26000
C895        C  0.35188771  0.88492500  0.11947254    -0.40300
C896        C  0.35467007  0.89091534  0.15195280     0.33100
C897        C  0.27310397  0.86080719  0.17508787     0.01700
F898        F  0.26983040  0.84765769  0.10972873    -0.12600
F899        F  0.38233415  0.90557562  0.16577302    -0.13100
C900        C  0.27093370  0.88402341  0.18992895     0.16600
C901        C  0.24536912  0.87760562  0.20742928     0.26000
C902        C  0.22170163  0.84791096  0.21054497    -0.40200
C903        C  0.22351696  0.82468025  0.19540779     0.33000
C904        C  0.24912350  0.83106445  0.17782297     0.14700
F905        F  0.29342717  0.91300082  0.18705633    -0.12600
F906        F  0.20082282  0.79579611  0.19831746    -0.13100
F907        F  0.24360000  0.90041641  0.22117744    -0.15400
F908        F  0.25085061  0.80819897  0.16406773    -0.13900
F909        F  0.33222921  0.88873138  0.20153688    -0.14000
F910        F  0.31998572  0.86409201  0.07419336    -0.15400
C911        C  0.04779797  0.66737858  0.17214160     0.14700
C912        C  0.07064324  0.69425071  0.15881135     0.01700
C913        C  0.07557640  0.69572545  0.12614506     0.16600
C914        C  0.05730286  0.67129280  0.10695988     0.26000
C915        C  0.03415089  0.64446740  0.12009356    -0.40300
C916        C  0.02998114  0.64249938  0.15297340     0.33100
C917        C  0.08877421  0.72126979  0.17840762     0.01700
F918        F  0.09818030  0.72098717  0.11274352    -0.12600
F919        F  0.50871664  0.61657960  0.16647054    -0.13100
C920        C  0.10604127  0.72071659  0.20399143     0.16600
C921        C  0.12423645  0.74690810  0.22122277     0.26000
C922        C  0.12499759  0.77403689  0.21362030    -0.40200
C923        C  0.10884624  0.77461916  0.18693443     0.33000
C924        C  0.09032270  0.74845537  0.17015487     0.14700
F925        F  0.10616544  0.69509860  0.21157162    -0.12600
F926        F  0.11120840  0.80050311  0.17634751    -0.13100
F927        F  0.14237294  0.74603851  0.24415335    -0.15400
F928        F  0.07381057  0.74972392  0.14562223    -0.13900
F929        F  0.04227909  0.66546753  0.20357237    -0.14000
F930        F  0.06179561  0.67410308  0.07531295    -0.15400
C931        C  0.33546089  0.75893805  0.19283812     0.14700
C932        C  0.36512018  0.77718395  0.18171774     0.01700
C933        C  0.38717236  0.76945099  0.18955282     0.16600
C934        C  0.37962245  0.74392576  0.20781490     0.26000
C935        C  0.34990864  0.72550440  0.21820964    -0.40300
C936        C  0.32798355  0.73337463  0.21103005     0.33100
C937        C  0.37297633  0.80411605  0.16196156     0.01700
F938        F  0.41591001  0.78622944  0.17896225    -0.12600
F939        F  0.29936088  0.71638068  0.22183137    -0.13100
C940        C  0.39756424  0.83241197  0.17004688     0.16600
C941        C  0.40532992  0.85753215  0.15096664     0.26000
C942        C  0.38828888  0.85494833  0.12389407    -0.40200
C943        C  0.36350423  0.82691806  0.11601566     0.33000
C944        C  0.35604386  0.80166759  0.13469517     0.14700
F945        F  0.41383858  0.83582826  0.19665916    -0.12600
F946        F  0.34705417  0.82386956  0.08965066    -0.13100
F947        F  0.42933311  0.88448620  0.15903965    -0.15400
F948        F  0.33280963  0.77462524  0.12556377    -0.13900
F949        F  0.31380809  0.76613058  0.18650071    -0.14000
F950        F  0.40142021  0.73732595  0.21558163    -0.15400
C951        C  0.38196409  0.82705574  0.33312303     0.14700
C952        C  0.36854159  0.79856864  0.34741819     0.01700
C953        C  0.36289708  0.79597523  0.37999173     0.16600
C954        C  0.37086030  0.82162546  0.39803905     0.26000
C955        C  0.38405903  0.85008038  0.38362372    -0.40300
C956        C  0.38964335  0.85260725  0.35108030     0.33100
C957        C  0.36134138  0.77182965  0.32828183     0.01700
F958        F  0.35039084  0.76872377  0.39437487    -0.12600
F959        F  0.40329328  0.87996385  0.33687782    -0.13100
C960        C  0.38466394  0.76955878  0.31365328     0.16600
C961        C  0.37801116  0.74513017  0.29425770     0.26000
C962        C  0.34798129  0.72259607  0.28925325    -0.40200
C963        C  0.32462866  0.72445534  0.30432470     0.33000
C964        C  0.33125953  0.74899713  0.32370083     0.14700
F965        F  0.41392862  0.79092668  0.31844588    -0.12600
F966        F  0.29543767  0.70278472  0.29979484    -0.13100
F967        F  0.40092521  0.74332314  0.28062513    -0.15400
F968        F  0.30836149  0.75088765  0.33738507    -0.13900
F969        F  0.38765157  0.83006613  0.30170049    -0.14000
F970        F  0.36571577  0.81876478  0.42956961    -0.15400
C971        C  0.45437499  0.62845000  0.33110733     0.14700
C972        C  0.43568906  0.63755219  0.34550748     0.01700
C973        C  0.43312951  0.63661354  0.37846194     0.16600
C974        C  0.44889935  0.62638936  0.39687594     0.26000
C975        C  0.46736456  0.61689820  0.38250797    -0.40300
C976        C  0.46987173  0.61787593  0.34945457     0.33100
C977        C  0.41556952  0.64380232  0.32606554     0.01700
F978        F  0.41492932  0.64515080  0.39267408    -0.12600
F979        F  0.48659921  0.60772632  0.33493211    -0.13100
C980        C  0.38511356  0.62169799  0.32366169     0.16600
C981        C  0.36564662  0.62627961  0.30444645     0.26000
C982        C  0.37618331  0.65323791  0.28754664    -0.40200
C983        C  0.40690925  0.67522863  0.28943701     0.33000
C984        C  0.42656467  0.67052090  0.30863227     0.14700
F985        F  0.37458797  0.59496831  0.33878843    -0.12600
F986        F  0.41790108  0.70090009  0.27228145    -0.13100
F987        F  0.33755924  0.60285890  0.29926022    -0.15400
F988        F  0.45621231  0.69183667  0.31015639    -0.13900
F989        F  0.45649834  0.62855855  0.29921517    -0.14000
F990        F  0.44629593  0.62587567  0.42873489    -0.15400
C991        C  0.40525729  0.66013525  0.16740356     0.14700
C992        C  0.41237521  0.63811731  0.17698046     0.01700
C993        C  0.40021284  0.62277532  0.20547158     0.16600
C994        C  0.37981768  0.62761627  0.22237229     0.26000
C995        C  0.37497490  0.65153869  0.21469838    -0.40300
C996        C  0.38796156  0.66767714  0.18668248     0.33100
C997        C  0.43076304  0.62980752  0.15665600     0.01700
F998        F  0.40759866  0.60259268  0.21699552    -0.12600
F999        F  0.38366323  0.69048223  0.17728291    -0.13100
C1000       C  0.45680908  0.65190569  0.14114079     0.16600
C1001       C  0.47279240  0.64366289  0.12073351     0.26000
C1002       C  0.46531599  0.61338598  0.11823891    -0.40200
C1003       C  0.43994395  0.59145913  0.13470299     0.33000
C1004       C  0.42208498  0.59938693  0.15222991     0.14700
F1005       F  0.46715861  0.68157501  0.14592071    -0.12600
F1006       F  0.43224624  0.56207168  0.13393122    -0.13100
F1007       F  0.99526150  0.66533575  0.10314488    -0.15400
F1008       F  0.39586707  0.57698566  0.16427102    -0.13900
F1009       F  0.41414538  0.67382565  0.13889646    -0.14000
F1010       F  0.36313303  0.60714644  0.24456820    -0.15400
C1011       C  0.19471098  0.57602340  0.37211848     0.14700
C1012       C  0.19327510  0.57079822  0.33954153     0.01700
C1013       C  0.16655534  0.54750886  0.32632852     0.16600
C1014       C  0.14170086  0.52954259  0.34558566     0.26000
C1015       C  0.14354983  0.53422058  0.37839792    -0.40300
C1016       C  0.17027746  0.55782565  0.39135652     0.33100
C1017       C  0.22037169  0.58901534  0.32005711     0.01700
F1018       F  0.16483902  0.54170366  0.29497393    -0.12600
F1019       F  0.17304720  0.56280504  0.42292815    -0.13100
C1020       C  0.24754899  0.59023380  0.32815077     0.16600
C1021       C  0.27401292  0.60929935  0.31204931     0.26000
C1022       C  0.27371844  0.62614897  0.28599447    -0.40200
C1023       C  0.24656271  0.62558276  0.27840938     0.33000
C1024       C  0.22006812  0.60702299  0.29519712     0.14700
F1025       F  0.24852943  0.57300864  0.35201059    -0.12600
F1026       F  0.24597445  0.64405548  0.25580045    -0.13100
F1027       F  0.29991191  0.61153127  0.32270431    -0.15400
F1028       F  0.19441520  0.60743277  0.28792906    -0.13900
F1029       F  0.22002210  0.59876957  0.38539689    -0.14000
F1030       F  0.11590373  0.50763912  0.33223210    -0.15400
C1031       C  0.23592191  0.57581654  0.19864661     0.14700
C1032       C  0.22710991  0.58871168  0.17462415     0.01700
C1033       C  0.24357836  0.61984812  0.16967833     0.16600
C1034       C  0.26833882  0.63800796  0.18883799     0.26000
C1035       C  0.27680973  0.62533981  0.21351609    -0.40300
C1036       C  0.26077652  0.59396448  0.21781980     0.33100
C1037       C  0.20023839  0.56985504  0.15518009     0.01700
F1038       F  0.23554512  0.63264282  0.14630491    -0.12600
F1039       F  0.26936028  0.58087223  0.24033454    -0.13100
C1040       C  0.17395029  0.57154630  0.15919157     0.16600
C1041       C  0.14843683  0.55392718  0.14077484     0.26000
C1042       C  0.14896639  0.53464186  0.11775326    -0.40200
C1043       C  0.17549144  0.53329688  0.11340888     0.33000
C1044       C  0.20087535  0.55056526  0.13229313     0.14700
F1045       F  0.17297624  0.59012494  0.18117521    -0.12600
F1046       F  0.17704145  0.51590359  0.09037481    -0.13100
F1047       F  0.12299959  0.55537489  0.14564329    -0.15400
F1048       F  0.22631585  0.54904778  0.12779850    -0.13900
F1049       F  0.22006226  0.54572548  0.20385314    -0.14000
F1050       F  0.28350592  0.66807964  0.18373559    -0.15400
C1051       C  0.33234738  0.66581280  0.78221334     0.47500
H1052       H  0.33227680  0.66549825  0.80838884    -0.01500
C1053       C  0.33344684  0.66790330  0.72092747     0.47500
H1054       H  0.33330744  0.66864325  0.69481962    -0.01500
C1055       C  0.30161757  0.64427301  0.76694395    -0.15200
C1056       C  0.34098374  0.69675975  0.76877439    -0.15000
C1057       C  0.35511225  0.65809555  0.76748451    -0.15400
C1058       C  0.30249886  0.64503605  0.73447017    -0.15300
C1059       C  0.34175168  0.69800375  0.73656602    -0.14900
C1060       C  0.35556769  0.65886174  0.73495984    -0.15200
O1061       O  0.05403495  0.51844562  0.97880259    -0.72400
O1062       O  0.01813386  0.55429503  0.52076847    -0.72400
O1063       O  0.02580697  0.54681687  0.96024079    -0.72500
O1064       O  0.04702425  0.52644202  0.53940258    -0.72500
O1065       O  0.09410335  0.56073952  0.52985831    -0.72500
O1066       O  0.06014975  0.59381626  0.96941534    -0.72400
O1067       O  0.06187504  0.59219777  0.53381612    -0.72400
O1068       O  0.09186445  0.56199661  0.96538440    -0.72500
Ni1069     Ni  0.03470277  0.53495002  0.99981622     1.25400
Ni1070     Ni  0.07957247  0.57974599  0.99959414     1.25400
C1071       C  0.07672559  0.53308849  0.96216346     0.89800
C1072       C  0.03284238  0.57711913  0.53712247     0.89700
C1073       C  0.03520914  0.57459247  0.95604329     0.89700
C1074       C  0.07499987  0.53589569  0.54332639     0.89900
O1075       O  0.47897184  0.53534128  0.97843641    -0.72400
O1076       O  0.44326929  0.96310202  0.52099150    -0.72400
O1077       O  0.45113566  0.97857618  0.96018396    -0.72500
O1078       O  0.47100094  0.51974444  0.53909520    -0.72500
O1079       O  0.43660312  0.53230156  0.52929327    -0.72500
O1080       O  0.40380123  0.96555529  0.96860177    -0.72400
O1081       O  0.40484652  0.96822780  0.53327606    -0.72400
O1082       O  0.43529315  0.52954940  0.96488695    -0.72500
Ni1083     Ni  0.46258731  0.49919880  0.99965404     1.25400
Ni1084     Ni  0.41751808  0.49882917  0.99898788     1.25400
C1085       C  0.46437418  0.54374353  0.96191991     0.89800
C1086       C  0.42013056  0.95455766  0.53710957     0.89700
C1087       C  0.42329873  0.96006387  0.95563644     0.89700
C1088       C  0.46172060  0.53826441  0.54268805     0.89900
O1089       O  0.03563250  0.97981540  0.52110624    -0.72400
O1090       O  0.46263573  0.94345926  0.97968669    -0.72400
O1091       O  0.47904600  0.95212712  0.54012409    -0.72500
O1092       O  0.01928735  0.97134608  0.96080969    -0.72500
O1093       O  0.03238592  0.93745890  0.97067456    -0.72500
O1094       O  0.46605965  0.90496837  0.53199733    -0.72400
O1095       O  0.46807874  0.90533718  0.96751795    -0.72400
O1096       O  0.03011311  0.93649537  0.53492392    -0.72500
Ni1097     Ni  0.99913349  0.96318740  0.50040155     1.25400
Ni1098     Ni  0.49908635  0.91848104  0.50127708     1.25400
C1099       C  0.04422469  0.96542541  0.53760782     0.89800
C1100       C  0.45403559  0.92024174  0.96388559     0.89700
C1101       C  0.46066066  0.92445796  0.54496341     0.89700
C1102       C  0.03804386  0.96231139  0.95717350     0.89900
C1103       C  0.01507196  0.61869064  0.59905275     0.04300
C1104       C  0.48304738  0.60405572  0.59818769     0.04300
C1105       C  0.46704700  0.57898454  0.57834893    -0.16200
C1106       C  0.48162319  0.56738983  0.56026425     0.04300
C1107       C  0.01449326  0.58427934  0.55911815     0.04300
C1108       C  0.03012448  0.60890576  0.57908353    -0.16200
H1109       H  0.05453984  0.62053740  0.57940491     0.06300
H1110       H  0.44266896  0.56786272  0.57738503     0.06300
C1111       C  0.39711068  0.88125494  0.60302353     0.04300
C1112       C  0.37912491  0.89479380  0.59996891     0.04300
C1113       C  0.38721734  0.91839946  0.57843667    -0.16200
C1114       C  0.41323821  0.92927943  0.55986754     0.04300
C1115       C  0.43216681  0.91554376  0.56345572     0.04300
C1116       C  0.42320590  0.89167754  0.58480237    -0.16200
H1117       H  0.43670494  0.88093727  0.58728737     0.06300
H1118       H  0.37307671  0.92845638  0.57632267     0.06300
C1119       C  0.48432300  0.60638262  0.90200941     0.04300
C1120       C  0.01612444  0.62081785  0.90073638     0.04300
C1121       C  0.03132227  0.60950949  0.91859437    -0.16200
C1122       C  0.01585972  0.58410425  0.93786636     0.04300
C1123       C  0.48305394  0.56982421  0.94016657     0.04300
C1124       C  0.46825905  0.58137483  0.92184633    -0.16200
H1125       H  0.44388380  0.57073634  0.92284316     0.06300
H1126       H  0.05573973  0.62073854  0.91736120     0.06300
C1127       C  0.37959455  0.89517764  0.89878642     0.04300
C1128       C  0.39320721  0.87732693  0.90278839     0.04300
C1129       C  0.41708491  0.88614515  0.92417936    -0.16200
C1130       C  0.42820578  0.91265428  0.94170245     0.04300
C1131       C  0.41422498  0.93126419  0.93767168     0.04300
C1132       C  0.39002497  0.92161760  0.91640589    -0.16200
H1133       H  0.37920218  0.93496235  0.91332061     0.06300
H1134       H  0.42738856  0.87228078  0.92679426     0.06300
C1135       C  0.11771826  0.51526627  0.89948548     0.04300
C1136       C  0.10366286  0.98346644  0.90124605     0.04300
C1137       C  0.07889368  0.96769565  0.92158771    -0.16200
C1138       C  0.06707897  0.98216096  0.93937034     0.04300
C1139       C  0.08365718  0.51481691  0.93994874     0.04300
C1140       C  0.10782600  0.53028240  0.91934867    -0.16200
H1141       H  0.11914311  0.55460915  0.91858346     0.06300
H1142       H  0.06820924  0.94348026  0.92338681     0.06300
C1143       C  0.10705366  0.98496167  0.59693299     0.04300
C1144       C  0.12189095  0.51665590  0.59789493     0.04300
C1145       C  0.11071844  0.53195124  0.57997040    -0.16200
C1146       C  0.08485889  0.51666296  0.56119303     0.04300
C1147       C  0.07044370  0.98402749  0.55902088     0.04300
C1148       C  0.08188076  0.96915560  0.57725149    -0.16200
H1149       H  0.07085330  0.94485254  0.57649317     0.06300
H1150       H  0.12225855  0.55628002  0.58099254     0.06300
C1151       C  0.16722457  0.83302292  0.77925422     0.47500
H1152       H  0.16825762  0.83263672  0.80536244    -0.01500
C1153       C  0.16452356  0.83250591  0.71794221     0.47500
H1154       H  0.16407830  0.83276248  0.69178216    -0.01500
C1155       C  0.14404923  0.80236469  0.76540213    -0.15200
C1156       C  0.15802348  0.85518180  0.76589727    -0.15000
C1157       C  0.19728268  0.84137831  0.76314084    -0.15400
C1158       C  0.14304358  0.80176142  0.73291822    -0.15300
C1159       C  0.15670133  0.85486591  0.73335169    -0.14900
C1160       C  0.19572683  0.84098280  0.73099082    -0.15200
C1161       C  0.12325283  0.95196206  0.66947469     0.14700
C1162       C  0.13184565  0.93257954  0.65589290     0.01700
C1163       C  0.13274076  0.93073407  0.62296804     0.16600
C1164       C  0.12512548  0.94813201  0.60376082     0.26000
C1165       C  0.11644371  0.96754583  0.61728692    -0.40300
C1166       C  0.11545093  0.96924176  0.65029872     0.33100
C1167       C  0.13834399  0.91304717  0.67600331     0.01700
F1168       F  0.14085149  0.91193575  0.60951352    -0.12600
F1169       F  0.10593180  0.98685655  0.66390807    -0.13100
C1170       C  0.11658312  0.88263756  0.67933378     0.16600
C1171       C  0.12250758  0.86384736  0.69816029     0.26000
C1172       C  0.15037448  0.87511558  0.71381546    -0.40200
C1173       C  0.17199331  0.90572754  0.71089286     0.33000
C1174       C  0.16595196  0.92464013  0.69215104     0.14700
F1175       F  0.08918626  0.87140780  0.66515630    -0.12600
F1176       F  0.19883223  0.91725038  0.72623803    -0.13100
F1177       F  0.09986532  0.83545869  0.70369712    -0.15400
F1178       F  0.18700302  0.95418845  0.68957277    -0.13900
F1179       F  0.12152086  0.95338768  0.70128039    -0.14000
F1180       F  0.12628144  0.94612683  0.57195275    -0.15400
C1181       C  0.16147356  0.90587001  0.83341596     0.14700
C1182       C  0.13825552  0.91177118  0.82510156     0.01700
C1183       C  0.12137575  0.89837736  0.79762278     0.16600
C1184       C  0.12623073  0.87828948  0.78030259     0.26000
C1185       C  0.15101672  0.87436797  0.78675608    -0.40300
C1186       C  0.16827695  0.88808215  0.81406460     0.33100
C1187       C  0.13008815  0.93004275  0.84570153     0.01700
F1188       F  0.09961206  0.90424782  0.78754149    -0.12600
F1189       F  0.19126683  0.88375335  0.82291436    -0.13100
C1190       C  0.15225298  0.95717073  0.85942543     0.16600
C1191       C  0.14389921  0.97362961  0.87897393     0.26000
C1192       C  0.11331100  0.96549088  0.88199139    -0.40200
C1193       C  0.09130339  0.93877919  0.86748722     0.33000
C1194       C  0.09952233  0.92040638  0.85155173     0.14700
F1195       F  0.18202504  0.96811328  0.85373199    -0.12600
F1196       F  0.06154829  0.93021602  0.86860691    -0.13100
F1197       F  0.16571353  0.49707338  0.89521290    -0.15400
F1198       F  0.07731465  0.89285306  0.84223452    -0.13900
F1199       F  0.17700047  0.91633467  0.86084367    -0.14000
F1200       F  0.10497424  0.86091983  0.75897360    -0.15400
C1201       C  0.26063060  0.83502731  0.80217441     0.14700
C1202       C  0.27786468  0.86369612  0.81576088     0.01700
C1203       C  0.26901869  0.88526659  0.81063937     0.16600
C1204       C  0.24327457  0.87816608  0.79278378     0.26000
C1205       C  0.22523660  0.84909921  0.78083243    -0.40300
C1206       C  0.23445398  0.82778377  0.78490387     0.33100
C1207       C  0.30449011  0.87093058  0.83594988     0.01700
F1208       F  0.28488766  0.91304358  0.82357617    -0.12600
F1209       F  0.21818795  0.80004528  0.77197442    -0.13100
C1210       C  0.33262358  0.89672956  0.83010144     0.16600
C1211       C  0.35703978  0.90454345  0.85049245     0.26000
C1212       C  0.35394799  0.88641513  0.87670180    -0.40200
C1213       C  0.32609667  0.86034312  0.88222111     0.33000
C1214       C  0.30154173  0.85274573  0.86214373     0.14700
F1215       F  0.33649211  0.91432387  0.80456789    -0.12600
F1216       F  0.32239671  0.84279726  0.90773311    -0.13100
F1217       F  0.38382274  0.92973902  0.84457682    -0.15400
F1218       F  0.27451401  0.82824664  0.86904542    -0.13900
F1219       F  0.26927773  0.81413432  0.80545178    -0.14000
F1220       F  0.23637722  0.89993611  0.78652413    -0.15400
C1221       C  0.07445470  0.73664345  0.80164949     0.14700
C1222       C  0.08757251  0.72587889  0.82348759     0.01700
C1223       C  0.11908743  0.74098230  0.82695380     0.16600
C1224       C  0.13730217  0.76635461  0.80869546     0.26000
C1225       C  0.12434664  0.77657038  0.78607119    -0.40300
C1226       C  0.09272867  0.76181052  0.78299773     0.33100
C1227       C  0.06857927  0.69882178  0.84266382     0.01700
F1228       F  0.13220102  0.73107705  0.84808042    -0.12600
F1229       F  0.07959558  0.77188350  0.76208231    -0.13100
C1230       C  0.07027178  0.67264306  0.83841174     0.16600
C1231       C  0.05316247  0.64734060  0.85724671     0.26000
C1232       C  0.03424155  0.64787805  0.88083114    -0.40200
C1233       C  0.03277726  0.67423318  0.88522588     0.33000
C1234       C  0.04957822  0.69939452  0.86604284     0.15400
F1235       F  0.08834383  0.67155871  0.81578261    -0.12600
F1236       F  0.01558508  0.67581700  0.90853128    -0.13100
F1237       F  0.05462348  0.62206281  0.85210737    -0.15400
F1238       F  0.04798614  0.72464262  0.87083918    -0.13900
F1239       F  0.04401697  0.72239552  0.79798994    -0.14000
F1240       F  0.16770091  0.78025802  0.81227421    -0.15400
C1241       C  0.32893309  0.88259783  0.67018427     0.14700
C1242       C  0.30009693  0.86791675  0.65620263     0.01700
C1243       C  0.29736101  0.86139516  0.62381169     0.16600
C1244       C  0.32309919  0.87005596  0.60554532     0.26000
C1245       C  0.35187681  0.88494782  0.61948200    -0.40300
C1246       C  0.35463648  0.89099890  0.65194778     0.33100
C1247       C  0.27304299  0.86078986  0.67502737     0.01700
F1248       F  0.26980856  0.84748204  0.60970580    -0.12600
F1249       F  0.38229333  0.90572361  0.66577686    -0.13100
C1250       C  0.27079364  0.88401665  0.68973369     0.16600
C1251       C  0.24524167  0.87758589  0.70726462     0.26000
C1252       C  0.22166417  0.84786906  0.71054517    -0.40200
C1253       C  0.22355622  0.82462258  0.69554054     0.33000
C1254       C  0.24914838  0.83102140  0.67791664     0.14700
F1255       F  0.29320333  0.91301383  0.68670932    -0.12600
F1256       F  0.20095250  0.79571578  0.69861340    -0.13100
F1257       F  0.24340430  0.90040417  0.72089519    -0.15400
F1258       F  0.25095061  0.80815074  0.66427949    -0.13900
F1259       F  0.33215604  0.88888474  0.70148842    -0.14000
F1260       F  0.32000451  0.86399159  0.57420352    -0.15400
C1261       C  0.04766278  0.66747375  0.67207569     0.14700
C1262       C  0.07054795  0.69432722  0.65875998     0.01700
C1263       C  0.07551338  0.69579676  0.62610119     0.16600
C1264       C  0.05725325  0.67136110  0.60690988     0.26000
C1265       C  0.03407060  0.64454512  0.62003084    -0.40300
C1266       C  0.02985016  0.64259650  0.65290418     0.33100
C1267       C  0.08869300  0.72133009  0.67837039     0.01700
F1268       F  0.09813967  0.72105322  0.61271592    -0.12600
F1269       F  0.50855871  0.61660473  0.66646590    -0.13100
C1270       C  0.10597693  0.72075361  0.70392542     0.16600
C1271       C  0.12417749  0.74692779  0.72118142     0.26000
C1272       C  0.12492902  0.77406019  0.71362856    -0.40200
C1273       C  0.10875431  0.77466532  0.68697310     0.33000
C1274       C  0.09022961  0.74851889  0.67016651     0.14700
F1275       F  0.10610739  0.69512866  0.71145344    -0.12600
F1276       F  0.11109466  0.80055621  0.67644393    -0.13100
F1277       F  0.14232239  0.74604021  0.74409154    -0.15400
F1278       F  0.07370493  0.74980554  0.64565683    -0.13900
F1279       F  0.04210705  0.66557963  0.70349757    -0.14000
F1280       F  0.06179487  0.67415727  0.57527004    -0.15400
C1281       C  0.33545812  0.75896486  0.69280031     0.14700
C1282       C  0.36513393  0.77722847  0.68173122     0.01700
C1283       C  0.38718462  0.76950645  0.68961143     0.16600
C1284       C  0.37961976  0.74398088  0.70787833     0.26000
C1285       C  0.34989067  0.72554364  0.71822290    -0.40300
C1286       C  0.32796422  0.73339655  0.71098844     0.33100
C1287       C  0.37300548  0.80416601  0.66198017     0.01700
F1288       F  0.41593429  0.78629297  0.67905666    -0.12600
F1289       F  0.29932355  0.71638081  0.72173283    -0.13100
C1290       C  0.39757420  0.83246498  0.67009456     0.16600
C1291       C  0.40533730  0.85759437  0.65102957     0.26000
C1292       C  0.38831541  0.85501226  0.62394120    -0.40200
C1293       C  0.36355794  0.82697704  0.61602882     0.33000
C1294       C  0.35609857  0.80172049  0.63469415     0.14700
F1295       F  0.41383138  0.83587487  0.69671900    -0.12600
F1296       F  0.34713504  0.82393037  0.58964234    -0.13100
F1297       F  0.42931982  0.88455257  0.65913024    -0.15400
F1298       F  0.33289079  0.77467542  0.62552964    -0.13900
F1299       F  0.31380294  0.76614262  0.68641399    -0.14000
F1300       F  0.40141575  0.73739231  0.71569177    -0.15400
C1301       C  0.38189535  0.82699310  0.83321956     0.14700
C1302       C  0.36842614  0.79850084  0.84750466     0.01700
C1303       C  0.36274929  0.79590081  0.88007226     0.16600
C1304       C  0.37073709  0.82155440  0.89812538     0.26000
C1305       C  0.38398753  0.85001481  0.88371724    -0.40300
C1306       C  0.38959975  0.85254545  0.85118084     0.33100
C1307       C  0.36123468  0.77176993  0.82836233     0.01700
F1308       F  0.35019157  0.76864115  0.89444378    -0.12600
F1309       F  0.40330617  0.87990756  0.83699039    -0.13100
C1310       C  0.38457017  0.76950218  0.81376180     0.16600
C1311       C  0.37793253  0.74510348  0.79432814     0.26000
C1312       C  0.34790559  0.72258822  0.78926938    -0.40200
C1313       C  0.32453873  0.72443945  0.80431817     0.33000
C1314       C  0.33115400  0.74895962  0.82372205     0.14700
F1315       F  0.41383276  0.79084903  0.81861201    -0.12600
F1316       F  0.29535055  0.70278282  0.79973922    -0.13100
F1317       F  0.40085866  0.74331045  0.78070826    -0.15400
F1318       F  0.30824420  0.75085422  0.83737065    -0.13900
F1319       F  0.38760905  0.83000810  0.80180230    -0.14000
F1320       F  0.36557625  0.81869305  0.92965303    -0.15400
C1321       C  0.45438784  0.62853079  0.83105668     0.14700
C1322       C  0.43571895  0.63764689  0.84547034     0.01700
C1323       C  0.43314003  0.63666747  0.87842356     0.16600
C1324       C  0.44886702  0.62638282  0.89682237     0.26000
C1325       C  0.46731190  0.61687248  0.88244132    -0.40300
C1326       C  0.46984068  0.61789474  0.84938782     0.33100
C1327       C  0.41559081  0.64389600  0.82604058     0.01700
F1328       F  0.41495328  0.64521497  0.89264810    -0.12600
F1329       F  0.48654679  0.60772966  0.83484783    -0.13100
C1330       C  0.38514490  0.62176816  0.82361854     0.16600
C1331       C  0.36566300  0.62633688  0.80441540     0.26000
C1332       C  0.37617695  0.65329988  0.78753264    -0.40200
C1333       C  0.40689262  0.67531775  0.78944222     0.33000
C1334       C  0.42656194  0.67062830  0.80863568     0.14700
F1335       F  0.37464453  0.59502885  0.83871771    -0.12600
F1336       F  0.41786181  0.70099785  0.77230573    -0.13100
F1337       F  0.33758253  0.60290457  0.79922971    -0.15400
F1338       F  0.45619810  0.69197330  0.81018204    -0.13900
F1339       F  0.45653093  0.62868068  0.79916431    -0.14000
F1340       F  0.44624326  0.62583208  0.92868029    -0.15400
C1341       C  0.40523413  0.66022966  0.66736112     0.14700
C1342       C  0.41232077  0.63817743  0.67688836     0.01700
C1343       C  0.40016797  0.62282202  0.70537732     0.16600
C1344       C  0.37980669  0.62768100  0.72232030     0.26000
C1345       C  0.37498287  0.65162135  0.71468231    -0.40300
C1346       C  0.38797249  0.66778236  0.68667930     0.33100
C1347       C  0.43067836  0.62985594  0.65652838     0.01700
F1348       F  0.40752729  0.60260606  0.71685760    -0.12600
F1349       F  0.38370336  0.69061768  0.67732762    -0.13100
C1350       C  0.45672676  0.65194430  0.64100572     0.16600
C1351       C  0.47271366  0.64368720  0.62062017     0.26000
C1352       C  0.46524287  0.61341020  0.61816139    -0.40200
C1353       C  0.43985431  0.59149190  0.63461116     0.33000
C1354       C  0.42198446  0.59943133  0.65210164     0.14700
F1355       F  0.46708442  0.68161754  0.64576564    -0.12600
F1356       F  0.43215775  0.56210403  0.63387144    -0.13100
F1357       F  0.99517177  0.66537883  0.60295960    -0.15400
F1358       F  0.39574663  0.57703864  0.66411697    -0.13900
F1359       F  0.41411103  0.67393912  0.63886211    -0.14000
F1360       F  0.36313297  0.60721152  0.74452144    -0.15400
C1361       C  0.19464643  0.57600567  0.87203139     0.14700
C1362       C  0.19321945  0.57077025  0.83945759     0.01700
C1363       C  0.16650281  0.54747592  0.82624344     0.16600
C1364       C  0.14164343  0.52951431  0.84549766     0.26000
C1365       C  0.14348495  0.53420206  0.87830781    -0.40300
C1366       C  0.17020877  0.55781289  0.89126648     0.33100
C1367       C  0.22032057  0.58898702  0.81997837     0.01700
F1368       F  0.16479409  0.54166186  0.79489144    -0.12600
F1369       F  0.17297195  0.56280119  0.92283656    -0.13100
C1370       C  0.24749825  0.59020963  0.82808173     0.16600
C1371       C  0.27396514  0.60927532  0.81198392     0.26000
C1372       C  0.27367638  0.62613014  0.78593186    -0.40200
C1373       C  0.24651977  0.62555894  0.77833620     0.33000
C1374       C  0.22002137  0.60699578  0.79511750     0.14700
F1375       F  0.24847741  0.57299260  0.85195102    -0.12600
F1376       F  0.24593462  0.64403302  0.75572685    -0.13100
F1377       F  0.29986230  0.61150149  0.82263758    -0.15400
F1378       F  0.19437016  0.60740857  0.78784808    -0.13900
F1379       F  0.21995298  0.59875774  0.88530983    -0.14000
F1380       F  0.11584985  0.50760463  0.83214441    -0.15400
C1381       C  0.23599250  0.57579933  0.69857084     0.14700
C1382       C  0.22715743  0.58868044  0.67455467     0.01700
C1383       C  0.24359653  0.61981849  0.66961353     0.16600
C1384       C  0.26833944  0.63799622  0.68878312     0.26000
C1385       C  0.27682592  0.62534301  0.71346110    -0.40300
C1386       C  0.26083586  0.59396555  0.71774861     0.33100
C1387       C  0.20026595  0.56981744  0.65514228     0.01700
F1388       F  0.23554260  0.63259840  0.64624296    -0.12600
F1389       F  0.26944773  0.58089134  0.74025644    -0.13100
C1390       C  0.17400720  0.57156194  0.65915197     0.16600
C1391       C  0.14847338  0.55394807  0.64076421     0.26000
C1392       C  0.14895338  0.53461598  0.61776985    -0.40200
C1393       C  0.17545167  0.53322266  0.61341905     0.33000
C1394       C  0.20085526  0.55048245  0.63228059     0.14700
F1395       F  0.17308274  0.59019120  0.68110523    -0.12600
F1396       F  0.17695765  0.51579338  0.59039765    -0.13100
F1397       F  0.12306571  0.55544997  0.64563279    -0.15400
F1398       F  0.22626880  0.54891644  0.62778318    -0.13900
F1399       F  0.22015782  0.54570734  0.70377736    -0.14000
F1400       F  0.28346850  0.66807001  0.68369559    -0.15400
C1401       C  0.83236222  0.16579842  0.28221914     0.47500
H1402       H  0.83229293  0.16547865  0.30839461    -0.01500
C1403       C  0.83346028  0.16790260  0.22093472     0.47500
H1404       H  0.83331856  0.16864822  0.19482792    -0.01500
C1405       C  0.80163257  0.14425774  0.26694772    -0.15200
C1406       C  0.84099741  0.19674783  0.26878931    -0.15000
C1407       C  0.85513106  0.15809116  0.26748270    -0.15400
C1408       C  0.80251399  0.14502911  0.23447354    -0.15300
C1409       C  0.84176254  0.19799699  0.23658172    -0.14900
C1410       C  0.85558606  0.15886537  0.23495765    -0.15200
O1411       O  0.55404136  0.01846792  0.47880948    -0.72400
O1412       O  0.51813627  0.05428879  0.02077963    -0.72400
O1413       O  0.52581069  0.04683701  0.46024283    -0.72500
O1414       O  0.54703458  0.02644261  0.03940303    -0.72500
O1415       O  0.59411032  0.06074763  0.02985453    -0.72500
O1416       O  0.56015082  0.09383682  0.46942050    -0.72400
O1417       O  0.56187674  0.09219864  0.03381717    -0.72400
O1418       O  0.59186853  0.06201893  0.46539000    -0.72500
Ni1419     Ni  0.53470346  0.03496997  0.49982002     1.25400
Ni1420     Ni  0.57957187  0.07976538  0.49960146     1.25400
C1421       C  0.57673071  0.03311070  0.46216807     0.89800
C1422       C  0.53284506  0.07711622  0.03712901     0.89700
C1423       C  0.53521230  0.07461261  0.45604494     0.89700
C1424       C  0.57501158  0.03590232  0.04332347     0.89900
O1425       O  0.97897181  0.03534136  0.47845749    -0.72400
O1426       O  0.94327684  0.46308258  0.02100284    -0.72400
O1427       O  0.95112425  0.47857757  0.46016810    -0.72500
O1428       O  0.97098001  0.01974872  0.03910106    -0.72500
O1429       O  0.93658855  0.03231382  0.02929893    -0.72500
O1430       O  0.90379244  0.46556532  0.46858596    -0.72400
O1431       O  0.90485361  0.46820659  0.03329182    -0.72400
O1432       O  0.93528990  0.02953365  0.46489634    -0.72500
Ni1433     Ni  0.96259520  0.99919844  0.49967407     1.25400
Ni1434     Ni  0.91752166  0.99881847  0.49900120     1.25400
C1435       C  0.96437107  0.04373446  0.46193354     0.89800
C1436       C  0.92013826  0.45453626  0.03712153     0.89700
C1437       C  0.92328683  0.46006815  0.45562283     0.89700
C1438       C  0.96170527  0.03827270  0.04269299     0.89900
O1439       O  0.53561988  0.47981867  0.02110421    -0.72400
O1440       O  0.96262204  0.44346271  0.47967985    -0.72400
O1441       O  0.97905794  0.45210980  0.04012736    -0.72500
O1442       O  0.51930144  0.47132905  0.46083083    -0.72500
O1443       O  0.53240939  0.43745087  0.47070857    -0.72500
O1444       O  0.96607630  0.40495081  0.03201155    -0.72400
O1445       O  0.96806072  0.40533740  0.46751467    -0.72400
O1446       O  0.53010821  0.43649793  0.03490638    -0.72500
Ni1447     Ni  0.49912454  0.46319456  0.00039293     1.25400
Ni1448     Ni  0.99909476  0.41845844  0.00128180     1.25400
C1449       C  0.54421788  0.46542743  0.03759600     0.89800
C1450       C  0.95402176  0.42024539  0.46387909     0.89700
C1451       C  0.96067529  0.42444093  0.04497305     0.89700
C1452       C  0.53806220  0.46229899  0.45719962     0.89900
C1453       C  0.51508396  0.11868707  0.09906597     0.04300
C1454       C  0.98304899  0.10408100  0.09816824     0.04300
C1455       C  0.96704447  0.07900986  0.07833171    -0.16200
C1456       C  0.98161428  0.06739840  0.06026428     0.04300
C1457       C  0.51449834  0.08427816  0.05912481     0.04300
C1458       C  0.53013294  0.10889696  0.07909893    -0.16200
H1459       H  0.55454815  0.12051649  0.07943062     0.06300
H1460       H  0.94266699  0.06790047  0.07735746     0.06300
C1461       C  0.89712107  0.38122820  0.10302747     0.04300
C1462       C  0.87912238  0.39475240  0.09996101     0.04300
C1463       C  0.88721590  0.41836089  0.07843181    -0.16200
C1464       C  0.91324584  0.42925427  0.05987450     0.04300
C1465       C  0.93218061  0.41552538  0.06346624     0.04300
C1466       C  0.92322227  0.39166024  0.08481388    -0.16200
H1467       H  0.93672782  0.38092741  0.08730495     0.06300
H1468       H  0.87306899  0.42841043  0.07631143     0.06300
C1469       C  0.98431271  0.10636540  0.40201732     0.04300
C1470       C  0.51612521  0.12082323  0.40071663     0.04300
C1471       C  0.53132529  0.10952374  0.41858551    -0.16200
C1472       C  0.51586372  0.08412248  0.43786250     0.04300
C1473       C  0.98304775  0.06981221  0.44017673     0.04300
C1474       C  0.96825100  0.08136267  0.42186019    -0.16200
H1475       H  0.94387628  0.07072814  0.42286416     0.06300
H1476       H  0.55574299  0.12075531  0.41735612     0.06300
C1477       C  0.87959043  0.39518217  0.39877010     0.04300
C1478       C  0.89321631  0.37734127  0.40276370     0.04300
C1479       C  0.91708829  0.38615951  0.42416079    -0.16200
C1480       C  0.92819688  0.41266100  0.44169214     0.04300
C1481       C  0.91421108  0.43126593  0.43766371     0.04300
C1482       C  0.89000993  0.42161544  0.41640033    -0.16200
H1483       H  0.87918061  0.43495501  0.41332181     0.06300
H1484       H  0.92739922  0.37230136  0.42677262     0.06300
C1485       C  0.61771821  0.01527419  0.39948774     0.04300
C1486       C  0.60367091  0.48346467  0.40124990     0.04300
C1487       C  0.57890944  0.46768998  0.42160161    -0.16200
C1488       C  0.56709486  0.48215062  0.43939142     0.04300
C1489       C  0.58365930  0.01483682  0.43994992     0.04300
C1490       C  0.60783152  0.03029703  0.41935091    -0.16200
H1491       H  0.61915605  0.05462399  0.41858805     0.06300
H1492       H  0.56822943  0.44347480  0.42340111     0.06300
C1493       C  0.60705691  0.48496590  0.09691468     0.04300
C1494       C  0.62193097  0.01668152  0.09786614     0.04300
C1495       C  0.61074233  0.03196987  0.07995619    -0.16200
C1496       C  0.58487891  0.01667494  0.06118608     0.04300
C1497       C  0.57044161  0.48402873  0.05900503     0.04300
C1498       C  0.58188684  0.46915858  0.07722801    -0.16200
H1499       H  0.57086522  0.44485606  0.07646328     0.06300
H1500       H  0.62227509  0.05629837  0.08098120     0.06300
C1501       C  0.66723747  0.33303364  0.27924472     0.47500
H1502       H  0.66828174  0.33265014  0.30535221    -0.01500
C1503       C  0.66450744  0.33250108  0.21793379     0.47500
H1504       H  0.66405189  0.33275312  0.19177430    -0.01500
C1505       C  0.64406338  0.30237211  0.26540430    -0.15200
C1506       C  0.65801756  0.35517900  0.26589334    -0.15000
C1507       C  0.69729010  0.34139521  0.26311488    -0.15400
C1508       C  0.64304457  0.30175822  0.23292170    -0.15300
C1509       C  0.65667953  0.35485511  0.23334808    -0.14900
C1510       C  0.69571976  0.34099344  0.23096488    -0.15200
C1511       C  0.62322472  0.45194834  0.16946290     0.14700
C1512       C  0.63181717  0.43256349  0.15588671     0.01700
C1513       C  0.63272808  0.43072604  0.12296204     0.16600
C1514       C  0.62512989  0.44813512  0.10375005     0.26000
C1515       C  0.61644863  0.46755174  0.11727115    -0.40300
C1516       C  0.61543940  0.46923823  0.15028262     0.33100
C1517       C  0.63831063  0.41302997  0.17600289     0.01700
F1518       F  0.64083691  0.41192428  0.10951231    -0.12600
F1519       F  0.60591422  0.48684963  0.16388780    -0.13100
C1520       C  0.61655304  0.38261785  0.17932750     0.16600
C1521       C  0.62247906  0.36382793  0.19815433     0.26000
C1522       C  0.65034366  0.37510033  0.21381605    -0.40200
C1523       C  0.67195828  0.40571335  0.21089905     0.33000
C1524       C  0.66591521  0.42462515  0.19215831     0.14700
F1525       F  0.58916004  0.37138451  0.16514035    -0.12600
F1526       F  0.69879863  0.41723535  0.22624256    -0.13100
F1527       F  0.59984431  0.33543172  0.20367491    -0.15400
F1528       F  0.68696349  0.45417467  0.18958522    -0.13900
F1529       F  0.62147526  0.45336555  0.20126742    -0.14000
F1530       F  0.62629559  0.44613268  0.07194267    -0.15400
C1531       C  0.66146060  0.40586027  0.33341426     0.14700
C1532       C  0.63823515  0.41175107  0.32510583     0.01700
C1533       C  0.62134333  0.39834194  0.29763656     0.16600
C1534       C  0.62620575  0.37826056  0.28031245     0.26000
C1535       C  0.65100304  0.37435559  0.28675727    -0.40300
C1536       C  0.66826413  0.38807326  0.31406433     0.33100
C1537       C  0.63007609  0.43002959  0.34570386     0.01700
F1538       F  0.59956379  0.40419345  0.28756632    -0.12600
F1539       F  0.69125226  0.38374527  0.32291968    -0.13100
C1540       C  0.65224663  0.45716235  0.35941623     0.16600
C1541       C  0.64390000  0.47362719  0.37896402     0.26000
C1542       C  0.61331349  0.46549021  0.38198853    -0.40200
C1543       C  0.59130070  0.43877641  0.36749234     0.33000
C1544       C  0.59951296  0.42039502  0.35156520     0.14700
F1545       F  0.68201693  0.46810280  0.35371419    -0.12600
F1546       F  0.56154700  0.43021865  0.36861479    -0.13100
F1547       F  0.66568248  0.99703428  0.39526861    -0.15400
F1548       F  0.57730234  0.39283442  0.34227070    -0.13900
F1549       F  0.67699451  0.41633277  0.36083704    -0.14000
F1550       F  0.60494887  0.36088205  0.25898678    -0.15400
C1551       C  0.76069051  0.33507100  0.30205661     0.14700
C1552       C  0.77788443  0.36371541  0.31571034     0.01700
C1553       C  0.76899300  0.38526111  0.31066152     0.16600
C1554       C  0.74325487  0.37816496  0.29280078     0.26000
C1555       C  0.72524949  0.34911620  0.28079441    -0.40300
C1556       C  0.73450307  0.32782192  0.28480347     0.33100
C1557       C  0.80451032  0.37094799  0.33589878     0.01700
F1558       F  0.78480928  0.41300848  0.32367538    -0.12600
F1559       F  0.71825972  0.30009850  0.27183415    -0.13100
C1560       C  0.83260864  0.39682493  0.33014545     0.16600
C1561       C  0.85701302  0.40463667  0.35055117     0.26000
C1562       C  0.85395206  0.38642641  0.37667449    -0.40200
C1563       C  0.82613628  0.36028184  0.38210004     0.33000
C1564       C  0.80159015  0.35268689  0.36201166     0.14700
F1565       F  0.83645556  0.41450151  0.30469205    -0.12600
F1566       F  0.82245429  0.34266203  0.40753968    -0.13100
F1567       F  0.88375419  0.42991561  0.34473580    -0.15400
F1568       F  0.77459295  0.32811334  0.36883272    -0.13900
F1569       F  0.76938464  0.31420673  0.30525388    -0.14000
F1570       F  0.73633781  0.39992739  0.28658227    -0.15400
C1571       C  0.57446347  0.23666845  0.30164870     0.14700
C1572       C  0.58757618  0.22587839  0.32346378     0.01700
C1573       C  0.61909180  0.24097052  0.32692814     0.16600
C1574       C  0.63731200  0.26635233  0.30868504     0.26000
C1575       C  0.62435971  0.27658800  0.28607983    -0.40300
C1576       C  0.59274247  0.26184712  0.28301599     0.33100
C1577       C  0.56857605  0.19881681  0.34263049     0.01700
F1578       F  0.63220049  0.23104494  0.34803755    -0.12600
F1579       F  0.57961611  0.27194816  0.26212464    -0.13100
C1580       C  0.57030182  0.17265198  0.33841312     0.16600
C1581       C  0.55319201  0.14735152  0.35725021     0.26000
C1582       C  0.53423883  0.14787809  0.38080345    -0.40200
C1583       C  0.53274097  0.17421938  0.38516187     0.33000
C1584       C  0.54953866  0.19937582  0.36597395     0.15400
F1585       F  0.58840840  0.17157945  0.31581751    -0.12600
F1586       F  0.51552270  0.17579809  0.40844087    -0.13100
F1587       F  0.55469008  0.12208864  0.35214732    -0.15400
F1588       F  0.54791161  0.22460930  0.37073642    -0.13900
F1589       F  0.54402603  0.22243305  0.29799029    -0.14000
F1590       F  0.66771181  0.28024180  0.31225258    -0.15400
C1591       C  0.82889378  0.38247541  0.17016729     0.14700
C1592       C  0.80006622  0.36785503  0.15616238     0.01700
C1593       C  0.79734710  0.36138765  0.12375811     0.16600
C1594       C  0.82309298  0.37004741  0.10550409     0.26000
C1595       C  0.85186280  0.38489224  0.11946258    -0.40300
C1596       C  0.85460427  0.39088473  0.15194073     0.33100
C1597       C  0.77301041  0.36074833  0.17497834     0.01700
F1598       F  0.76980607  0.34753466  0.10962641    -0.12600
F1599       F  0.88225212  0.40556609  0.16579333    -0.13100
C1600       C  0.77083675  0.38397542  0.18978933     0.16600
C1601       C  0.74529265  0.37756735  0.20732222     0.26000
C1602       C  0.72164580  0.34787136  0.21050313    -0.40200
C1603       C  0.72345500  0.32462885  0.19538145     0.33000
C1604       C  0.74904084  0.33100438  0.17775812     0.14700
F1605       F  0.79331393  0.41295443  0.18686597    -0.12600
F1606       F  0.70077789  0.29574293  0.19834499    -0.13100
F1607       F  0.74352713  0.40038978  0.22104441    -0.15400
F1608       F  0.75076342  0.30812965  0.16401977    -0.13900
F1609       F  0.83210319  0.38870054  0.20148532    -0.14000
F1610       F  0.82001323  0.36403026  0.07415203    -0.15400
C1611       C  0.54764585  0.16744744  0.17211098     0.14700
C1612       C  0.57054860  0.19429748  0.15880769     0.01700
C1613       C  0.57554265  0.19576685  0.12615517     0.16600
C1614       C  0.55728582  0.17134036  0.10695342     0.26000
C1615       C  0.53408322  0.14452866  0.12005904    -0.40300
C1616       C  0.52984008  0.14257512  0.15292986     0.33100
C1617       C  0.58868083  0.22130210  0.17841811     0.01700
F1618       F  0.59819112  0.22101758  0.11278523    -0.12600
F1619       F  0.00851723  0.11666199  0.16646342    -0.13100
C1620       C  0.60595316  0.22073116  0.20398669     0.16600
C1621       C  0.62416465  0.24691505  0.22122268     0.26000
C1622       C  0.62492653  0.27404851  0.21364620    -0.40200
C1623       C  0.60875736  0.27464513  0.18698220     0.33000
C1624       C  0.59023136  0.24849190  0.17018757     0.14700
F1625       F  0.60606631  0.19510325  0.21154412    -0.12600
F1626       F  0.61110577  0.30053385  0.17643154    -0.13100
F1627       F  0.64231374  0.24603517  0.24413249    -0.15400
F1628       F  0.57372272  0.24977373  0.14565894    -0.13900
F1629       F  0.54206479  0.16555315  0.20352743    -0.14000
F1630       F  0.56184782  0.17414402  0.07531700    -0.15400
C1631       C  0.83548344  0.25898346  0.19286369     0.14700
C1632       C  0.86515542  0.27723659  0.18178080     0.01700
C1633       C  0.88720116  0.26950229  0.18963963     0.16600
C1634       C  0.87963230  0.24396853  0.20789230     0.26000
C1635       C  0.84990546  0.22553995  0.21824727    -0.40300
C1636       C  0.82798520  0.23340665  0.21103684     0.33100
C1637       C  0.87302379  0.30416643  0.16202178     0.01700
F1638       F  0.91594843  0.28628365  0.17907632    -0.12600
F1639       F  0.79934536  0.21639200  0.22178435    -0.13100
C1640       C  0.89760108  0.33246516  0.17011802     0.16600
C1641       C  0.90536627  0.35758448  0.15103642     0.26000
C1642       C  0.88833441  0.35499254  0.12395279    -0.40200
C1643       C  0.86356628  0.32695740  0.11606121     0.33000
C1644       C  0.85610738  0.30171031  0.13474096     0.14700
F1645       F  0.91386319  0.33588433  0.19674100    -0.12600
F1646       F  0.84713046  0.32390150  0.08968271    -0.13100
F1647       F  0.92935745  0.38454343  0.15911887    -0.15400
F1648       F  0.83288904  0.27466338  0.12559689    -0.13900
F1649       F  0.81383631  0.26617806  0.18650171    -0.14000
F1650       F  0.90142133  0.23736220  0.21567965    -0.15400
C1651       C  0.88193241  0.32701310  0.33319307     0.14700
C1652       C  0.86849668  0.29852489  0.34748598     0.01700
C1653       C  0.86284126  0.29592840  0.38005721     0.16600
C1654       C  0.87080768  0.32157870  0.39810516     0.26000
C1655       C  0.88401491  0.35003389  0.38368974    -0.40300
C1656       C  0.88961181  0.35256334  0.35114983     0.33100
C1657       C  0.86129659  0.27178917  0.32834798     0.01700
F1658       F  0.85032248  0.26867459  0.39443695    -0.12600
F1659       F  0.90327672  0.37992199  0.33695154    -0.13100
C1660       C  0.88462064  0.26951971  0.31372261     0.16600
C1661       C  0.87796830  0.24510411  0.29430895     0.26000
C1662       C  0.84793762  0.22257937  0.28928738    -0.40200
C1663       C  0.82458375  0.22443356  0.30436084     0.33000
C1664       C  0.83121392  0.24896558  0.32375124     0.14700
F1665       F  0.91388592  0.29087897  0.31853138    -0.12600
F1666       F  0.79539282  0.20276855  0.29981772    -0.13100
F1667       F  0.90088390  0.24330348  0.28067317    -0.15400
F1668       F  0.80831502  0.25085766  0.33743076    -0.13900
F1669       F  0.88763368  0.33002590  0.30177330    -0.14000
F1670       F  0.86566181  0.31871851  0.42963553    -0.15400
C1671       C  0.95436654  0.12849673  0.33106740     0.14700
C1672       C  0.93573019  0.13765192  0.34548318     0.01700
C1673       C  0.93317170  0.13669929  0.37843785     0.16600
C1674       C  0.94888473  0.12639849  0.39683620     0.26000
C1675       C  0.96730006  0.11685329  0.38245238    -0.40300
C1676       C  0.96981036  0.11785172  0.34939834     0.33100
C1677       C  0.91560510  0.14390467  0.32605560     0.01700
F1678       F  0.91501958  0.14528974  0.39266401    -0.12600
F1679       F  0.98649438  0.10766029  0.33485927    -0.13100
C1680       C  0.88515780  0.12178056  0.32364080     0.16600
C1681       C  0.86568110  0.12634207  0.30442272     0.26000
C1682       C  0.87619842  0.15329924  0.28752889    -0.40200
C1683       C  0.90691622  0.17531298  0.28942983     0.33000
C1684       C  0.92658292  0.17062645  0.30863066     0.14700
F1685       F  0.87465227  0.09504887  0.33875749    -0.12600
F1686       F  0.91789034  0.20098335  0.27227559    -0.13100
F1687       F  0.83760617  0.10290460  0.29922641    -0.15400
F1688       F  0.95622329  0.19196185  0.31016217    -0.13900
F1689       F  0.95648701  0.12861949  0.29917410    -0.14000
F1690       F  0.94628138  0.12587141  0.42869555    -0.15400
C1691       C  0.90523888  0.16025684  0.16733187     0.14700
C1692       C  0.91235412  0.13822757  0.17686366     0.01700
C1693       C  0.90023196  0.12288319  0.20536331     0.16600
C1694       C  0.87986500  0.12772474  0.22231402     0.26000
C1695       C  0.87500785  0.15164274  0.21467088    -0.40300
C1696       C  0.88797023  0.16779561  0.18665445     0.33100
C1697       C  0.93069901  0.12990488  0.15649317     0.01700
F1698       F  0.90762031  0.10268696  0.21683991    -0.12600
F1699       F  0.88366766  0.19060711  0.17729139    -0.13100
C1700       C  0.95674430  0.15198984  0.14096539     0.16600
C1701       C  0.97272808  0.14372621  0.12058346     0.26000
C1702       C  0.96524844  0.11344602  0.11812954    -0.40200
C1703       C  0.93985704  0.09153215  0.13457844     0.33000
C1704       C  0.92199500  0.09947889  0.15206836     0.14700
F1705       F  0.96710073  0.18166389  0.14571892    -0.12600
F1706       F  0.93215319  0.06214221  0.13384284    -0.13100
F1707       F  0.49522257  0.16540898  0.10298880    -0.15400
F1708       F  0.89575731  0.07709310  0.16409233    -0.13900
F1709       F  0.91409478  0.17395514  0.13882499    -0.14000
F1710       F  0.86321531  0.10725522  0.24452515    -0.15400
C1711       C  0.69466156  0.07599551  0.37203957     0.14700
C1712       C  0.69324143  0.07074839  0.33946869     0.01700
C1713       C  0.66653038  0.04744649  0.32625595     0.16600
C1714       C  0.64166467  0.02949558  0.34550611     0.26000
C1715       C  0.64349352  0.03420086  0.37831358    -0.40300
C1716       C  0.67021631  0.05781424  0.39127205     0.33100
C1717       C  0.72034095  0.08896503  0.31998819     0.01700
F1718       F  0.66483342  0.04161501  0.29490886    -0.12600
F1719       F  0.67297116  0.06281728  0.42283956    -0.13100
C1720       C  0.74751956  0.09018980  0.32808901     0.16600
C1721       C  0.77398424  0.10925557  0.31198774     0.26000
C1722       C  0.77369233  0.12610971  0.28593582    -0.40200
C1723       C  0.74653348  0.12553427  0.27834180     0.33000
C1724       C  0.72003723  0.10696979  0.29512545     0.14700
F1725       F  0.74850141  0.07297422  0.35195828    -0.12600
F1726       F  0.74594365  0.14400495  0.25573124    -0.13100
F1727       F  0.79988217  0.11148285  0.32263912    -0.15400
F1728       F  0.69438282  0.10737608  0.28785527    -0.13900
F1729       F  0.71996779  0.09874846  0.38531749    -0.14000
F1730       F  0.61587773  0.00757811  0.33215022    -0.15400
C1731       C  0.73601028  0.07581374  0.19853306     0.14700
C1732       C  0.72721320  0.08870673  0.17449519     0.01700
C1733       C  0.74367085  0.11984380  0.16955755     0.16600
C1734       C  0.76839300  0.13801075  0.18875601     0.26000
C1735       C  0.77684531  0.12534606  0.21345364    -0.40300
C1736       C  0.76083687  0.09396769  0.21773599     0.33100
C1737       C  0.70032629  0.06985801  0.15507398     0.01700
F1738       F  0.73565225  0.13263370  0.14616577    -0.12600
F1739       F  0.76941410  0.08087958  0.24026180    -0.13100
C1740       C  0.67406005  0.07158212  0.15911514     0.16600
C1741       C  0.64851823  0.05396073  0.14074183     0.26000
C1742       C  0.64900024  0.03464625  0.11772761    -0.40200
C1743       C  0.67550827  0.03327883  0.11333997     0.33000
C1744       C  0.70091950  0.05054367  0.13218935     0.14700
F1745       F  0.67313595  0.09019710  0.18108679    -0.12600
F1746       F  0.67701420  0.01586794  0.09029722    -0.13100
F1747       F  0.62310135  0.05543752  0.14564382    -0.15400
F1748       F  0.72634088  0.04899851  0.12766263    -0.13900
F1749       F  0.72015429  0.04572166  0.20373493    -0.14000
F1750       F  0.78353459  0.16808612  0.18367639    -0.15400
C1751       C  0.83237142  0.16579769  0.78220052     0.47500
H1752       H  0.83230942  0.16549136  0.80837613    -0.01500
C1753       C  0.83344957  0.16786593  0.72091402     0.47500
H1754       H  0.83329983  0.16859579  0.69480654    -0.01500
C1755       C  0.80163140  0.14426788  0.76694559    -0.15200
C1756       C  0.84102310  0.19674603  0.76875222    -0.15000
C1757       C  0.85511486  0.15805283  0.76746782    -0.15400
C1758       C  0.80250014  0.14501805  0.73447111    -0.15300
C1759       C  0.84177867  0.19797851  0.73654239    -0.14900
C1760       C  0.85555922  0.15880640  0.73494261    -0.15200
O1761       O  0.55406511  0.01846459  0.97885057    -0.72400
O1762       O  0.51811315  0.05427604  0.52076268    -0.72400
O1763       O  0.52586247  0.04685184  0.96026395    -0.72500
O1764       O  0.54704111  0.02645829  0.53936943    -0.72500
O1765       O  0.59411002  0.06075457  0.52978511    -0.72500
O1766       O  0.56020239  0.09384734  0.96945800    -0.72400
O1767       O  0.56185937  0.09218978  0.53378012    -0.72400
O1768       O  0.59191236  0.06201677  0.96546377    -0.72500
Ni1769     Ni  0.53472585  0.03497291  0.99984801     1.25400
Ni1770     Ni  0.57959981  0.07976653  0.99965649     1.25400
C1771       C  0.57677298  0.03310918  0.96223364     0.89800
C1772       C  0.53282890  0.07710340  0.53710865     0.89700
C1773       C  0.53526735  0.07462795  0.95607345     0.89700
C1774       C  0.57501956  0.03591461  0.54326980     0.89900
O1775       O  0.97901518  0.03537429  0.97846720    -0.72400
O1776       O  0.94328811  0.46310191  0.52099130    -0.72400
O1777       O  0.95108003  0.47855808  0.96017949    -0.72500
O1778       O  0.97096689  0.01972197  0.53909403    -0.72500
O1779       O  0.93657605  0.03228748  0.52929819    -0.72500
O1780       O  0.90374992  0.46553360  0.96862989    -0.72400
O1781       O  0.90485785  0.46822549  0.53324591    -0.72400
O1782       O  0.93534203  0.02958901  0.96490275    -0.72500
Ni1783     Ni  0.96261702  0.99922953  0.99967855     1.25400
Ni1784     Ni  0.91754728  0.99886013  0.99899220     1.25400
C1785       C  0.96442472  0.04378365  0.96194972     0.89800
C1786       C  0.92013803  0.45455214  0.53709192     0.89700
C1787       C  0.92324175  0.46004220  0.95564838     0.89700
C1788       C  0.96169718  0.03824904  0.54268628     0.89900
O1789       O  0.53564676  0.47983928  0.52117049    -0.72400
O1790       O  0.96260226  0.44345513  0.97968330    -0.72400
O1791       O  0.97903744  0.45209660  0.54013120    -0.72500
O1792       O  0.51924061  0.47131274  0.96076952    -0.72500
O1793       O  0.53234828  0.43742971  0.97062118    -0.72500
O1794       O  0.96605529  0.40494037  0.53199948    -0.72400
O1795       O  0.96803055  0.40532261  0.96752208    -0.72400
O1796       O  0.53012325  0.43651816  0.53499425    -0.72500
Ni1797     Ni  0.49916283  0.46320880  0.50044275     1.25400
Ni1798     Ni  0.99909826  0.41846120  0.50130007     1.25400
C1799       C  0.54422786  0.46544781  0.53768421     0.89800
C1800       C  0.95399007  0.42022979  0.96389166     0.89700
C1801       C  0.96064728  0.42442659  0.54495768     0.89700
C1802       C  0.53799431  0.46227751  0.95711691     0.89900
C1803       C  0.51511279  0.11863799  0.59911686     0.04300
C1804       C  0.98308903  0.10404655  0.59820110     0.04300
C1805       C  0.96706707  0.07898556  0.57835325    -0.16200
C1806       C  0.98161984  0.06737785  0.56025155     0.04300
C1807       C  0.51449409  0.08425666  0.55912809     0.04300
C1808       C  0.53014431  0.10886109  0.57911266    -0.16200
H1809       H  0.55456077  0.12048357  0.57942100     0.06300
H1810       H  0.94268809  0.06787502  0.57740445     0.06300
C1811       C  0.89706342  0.38120802  0.60297586     0.04300
C1812       C  0.87910227  0.39477494  0.59993974     0.04300
C1813       C  0.88720665  0.41838773  0.57841165    -0.16200
C1814       C  0.91322731  0.42926077  0.55984268     0.04300
C1815       C  0.93214122  0.41550788  0.56342804     0.04300
C1816       C  0.92315719  0.39162269  0.58475482    -0.16200
H1817       H  0.93664402  0.38086868  0.58723385     0.06300
H1818       H  0.87308111  0.42846240  0.57630830     0.06300
C1819       C  0.98437101  0.10643163  0.90206547     0.04300
C1820       C  0.51619570  0.12086736  0.90077626     0.04300
C1821       C  0.53139081  0.10956000  0.91863994    -0.16200
C1822       C  0.51592305  0.08414313  0.93789391     0.04300
C1823       C  0.98311119  0.06987544  0.94021370     0.04300
C1824       C  0.96831237  0.08141631  0.92189016    -0.16200
H1825       H  0.94393506  0.07075949  0.92286993     0.06300
H1826       H  0.55580952  0.12079614  0.91742174     0.06300
C1827       C  0.87956607  0.39516513  0.89876664     0.04300
C1828       C  0.89318844  0.37732078  0.90276857     0.04300
C1829       C  0.91705097  0.38613644  0.92417871    -0.16200
C1830       C  0.92815569  0.41263753  0.94171287     0.04300
C1831       C  0.91416761  0.43124066  0.93768370     0.04300
C1832       C  0.88997618  0.42159447  0.91640592    -0.16200
H1833       H  0.87914729  0.43493395  0.91332399     0.06300
H1834       H  0.92736222  0.37227900  0.92679444     0.06300
C1835       C  0.61778805  0.01529950  0.89956604     0.04300
C1836       C  0.60357417  0.48341848  0.90114593     0.04300
C1837       C  0.57881864  0.46765407  0.92150349    -0.16200
C1838       C  0.56701359  0.48212259  0.93928893     0.04300
C1839       C  0.58372138  0.01484201  0.94002741     0.04300
C1840       C  0.60790091  0.03031275  0.91943969    -0.16200
H1841       H  0.61922511  0.05464018  0.91868501     0.06300
H1842       H  0.56813959  0.44343961  0.92331621     0.06300
C1843       C  0.60705391  0.48499756  0.59701201     0.04300
C1844       C  0.62190929  0.01666712  0.59784618     0.04300
C1845       C  0.61074830  0.03196822  0.57990919    -0.16200
C1846       C  0.58488864  0.01668410  0.56112890     0.04300
C1847       C  0.57042922  0.48404979  0.55911365     0.04300
C1848       C  0.58187315  0.46918398  0.57734257    -0.16200
H1849       H  0.57085322  0.44488149  0.57658199     0.06300
H1850       H  0.62229112  0.05629707  0.58093192     0.06300
C1851       C  0.66722462  0.33301255  0.77923735     0.47500
H1852       H  0.66825769  0.33261702  0.80534458    -0.01500
C1853       C  0.66451922  0.33249497  0.71792514     0.47500
H1854       H  0.66407461  0.33275322  0.69176529    -0.01500
C1855       C  0.64407368  0.30235347  0.76538601    -0.15200
C1856       C  0.65799025  0.35514497  0.76588517    -0.15000
C1857       C  0.69728453  0.34139189  0.76312079    -0.15400
C1858       C  0.64306561  0.30174401  0.73290452    -0.15300
C1859       C  0.65667025  0.35483320  0.73333894    -0.14900
C1860       C  0.69572953  0.34100455  0.73097219    -0.15200
C1861       C  0.62332124  0.45201019  0.66951832     0.14700
C1862       C  0.63188232  0.43261109  0.65591627     0.01700
C1863       C  0.63274546  0.43075987  0.62298938     0.16600
C1864       C  0.62512472  0.44816403  0.60380024     0.26000
C1865       C  0.61646817  0.46758958  0.61734641    -0.40300
C1866       C  0.61551393  0.46929657  0.65036039     0.33100
C1867       C  0.63836704  0.41305856  0.67600857     0.01700
F1868       F  0.64082593  0.41194631  0.60951545    -0.12600
F1869       F  0.60601936  0.48692272  0.66399040    -0.13100
C1870       C  0.61661592  0.38263776  0.67927342     0.16600
C1871       C  0.62251946  0.36383148  0.69809678     0.26000
C1872       C  0.65035849  0.37509380  0.71380722    -0.40200
C1873       C  0.67197273  0.40571161  0.71093728     0.33000
C1874       C  0.66594922  0.42464186  0.69220562     0.14700
F1875       F  0.58924692  0.37141122  0.66503399    -0.12600
F1876       F  0.69879337  0.41722002  0.72631799    -0.13100
F1877       F  0.59988160  0.33542694  0.70356770    -0.15400
F1878       F  0.68699550  0.45419629  0.68967962    -0.13900
F1879       F  0.62161470  0.45343782  0.70132690    -0.14000
F1880       F  0.62624444  0.44614826  0.57198963    -0.15400
C1881       C  0.66132819  0.40575307  0.83342827     0.14700
C1882       C  0.63810832  0.41164181  0.82509309     0.01700
C1883       C  0.62123660  0.39823607  0.79761227     0.16600
C1884       C  0.62613569  0.37818261  0.78028169     0.26000
C1885       C  0.65093735  0.37429089  0.78675032    -0.40300
C1886       C  0.66815849  0.38798379  0.81408626     0.33100
C1887       C  0.62995110  0.42993284  0.84566777     0.01700
F1888       F  0.59944925  0.40407092  0.78752984    -0.12600
F1889       F  0.69113257  0.38364933  0.82298024    -0.13100
C1890       C  0.65212828  0.45706703  0.85937138     0.16600
C1891       C  0.64378992  0.47354946  0.87889856     0.26000
C1892       C  0.61320762  0.46542852  0.88190583    -0.40200
C1893       C  0.59118757  0.43871380  0.86741732     0.33000
C1894       C  0.59938960  0.42031504  0.85151206     0.14700
F1895       F  0.68189764  0.46799291  0.85367794    -0.12600
F1896       F  0.56143728  0.43017208  0.86852882    -0.13100
F1897       F  0.66578949  0.99711618  0.89532797    -0.15400
F1898       F  0.57717163  0.39275654  0.84222178    -0.13900
F1899       F  0.67683368  0.41621409  0.86086845    -0.14000
F1900       F  0.60491290  0.36082073  0.75891864    -0.15400
C1901       C  0.76072992  0.33506727  0.80194180     0.14700
C1902       C  0.77787061  0.36367152  0.81569489     0.01700
C1903       C  0.76892418  0.38518943  0.81076501     0.16600
C1904       C  0.74319118  0.37811003  0.79290774     0.26000
C1905       C  0.72523297  0.34909425  0.78080664    -0.40300
C1906       C  0.73453723  0.32782684  0.78470385     0.33100
C1907       C  0.80450175  0.37089642  0.83586342     0.01700
F1908       F  0.78468796  0.41289388  0.82388471    -0.12600
F1909       F  0.71834070  0.30014184  0.77163706    -0.13100
C1910       C  0.83257619  0.39681420  0.83014939     0.16600
C1911       C  0.85697876  0.40463644  0.85056051     0.26000
C1912       C  0.85393225  0.38640609  0.87666164    -0.40200
C1913       C  0.82613768  0.36022188  0.88204535     0.33000
C1914       C  0.80160105  0.35260290  0.86193624     0.14700
F1915       F  0.83639701  0.41452326  0.80473239    -0.12600
F1916       F  0.82246437  0.34258453  0.90746614    -0.13100
F1917       F  0.88370229  0.42994456  0.84477150    -0.15400
F1918       F  0.77462823  0.32797417  0.86870133    -0.13900
F1919       F  0.76948174  0.31423761  0.80502662    -0.14000
F1920       F  0.73624794  0.39986557  0.78676360    -0.15400
C1921       C  0.57450663  0.23668698  0.80171020     0.14700
C1922       C  0.58763901  0.22591450  0.82352133     0.01700
C1923       C  0.61915926  0.24098937  0.82693319     0.16600
C1924       C  0.63736294  0.26634777  0.80865514     0.26000
C1925       C  0.62438835  0.27656821  0.78606075    -0.40300
C1926       C  0.59276985  0.26183400  0.78303204     0.33100
C1927       C  0.56865496  0.19886693  0.84270966     0.01700
F1928       F  0.63228861  0.23106730  0.84802074    -0.12600
F1929       F  0.57962787  0.27191297  0.76213467    -0.13100
C1930       C  0.57036138  0.17269471  0.83847315     0.16600
C1931       C  0.55325403  0.14739585  0.85731009     0.26000
C1932       C  0.53431548  0.14792806  0.88087633    -0.40200
C1933       C  0.53283542  0.17427643  0.88525542     0.33000
C1934       C  0.54963885  0.19943664  0.86607279     0.15400
F1935       F  0.58844117  0.17161128  0.81585248    -0.12600
F1936       F  0.51562476  0.17585446  0.90854381    -0.13100
F1937       F  0.55473292  0.12212541  0.85218821    -0.15400
F1938       F  0.54803133  0.22467881  0.87085164    -0.13900
F1939       F  0.54406495  0.22246240  0.79809824    -0.14000
F1940       F  0.66776762  0.28022926  0.81217632    -0.15400
C1941       C  0.82897850  0.38257692  0.67021857     0.14700
C1942       C  0.80013533  0.36796698  0.65624917     0.01700
C1943       C  0.79737417  0.36150833  0.62384233     0.16600
C1944       C  0.82309077  0.37013793  0.60555413     0.26000
C1945       C  0.85187511  0.38495799  0.61947716    -0.40300
C1946       C  0.85466261  0.39096550  0.65195389     0.33100
C1947       C  0.77309484  0.36083814  0.67509743     0.01700
F1948       F  0.76981760  0.34768817  0.60974289    -0.12600
F1949       F  0.88232889  0.40563456  0.66576840    -0.13100
C1950       C  0.77090939  0.38404519  0.68993897     0.16600
C1951       C  0.74533566  0.37761368  0.70742855     0.26000
C1952       C  0.72167495  0.34791475  0.71053423    -0.40200
C1953       C  0.72350673  0.32469243  0.69539926     0.33000
C1954       C  0.74912270  0.33109029  0.67782524     0.14700
F1955       F  0.79339655  0.41302661  0.68707813    -0.12600
F1956       F  0.70082104  0.29580363  0.69830234    -0.13100
F1957       F  0.74355283  0.40041524  0.72117998    -0.15400
F1958       F  0.75086748  0.30823320  0.66407339    -0.13900
F1959       F  0.83222872  0.38880506  0.70153621    -0.14000
F1960       F  0.81996746  0.36411192  0.57420409    -0.15400
C1961       C  0.54777803  0.16739669  0.67214019     0.14700
C1962       C  0.57063503  0.19425952  0.65880954     0.01700
C1963       C  0.57557044  0.19573270  0.62614480     0.16600
C1964       C  0.55729388  0.17130072  0.60696068     0.26000
C1965       C  0.53413244  0.14448069  0.62009442    -0.40300
C1966       C  0.52995313  0.14251975  0.65297349     0.33100
C1967       C  0.58876821  0.22127477  0.67840456     0.01700
F1968       F  0.59817755  0.22099307  0.61274454    -0.12600
F1969       F  0.00864673  0.11658777  0.66646679    -0.13100
C1970       C  0.60605666  0.22072532  0.70396869     0.16600
C1971       C  0.62424423  0.24691371  0.72120691     0.26000
C1972       C  0.62497576  0.27403203  0.71362782    -0.40200
C1973       C  0.60880131  0.27461128  0.68696201     0.33000
C1974       C  0.59028803  0.24845109  0.67017427     0.14700
F1975       F  0.60620529  0.19511456  0.71152326    -0.12600
F1976       F  0.61112872  0.30048911  0.67640608    -0.13100
F1977       F  0.64239891  0.24605371  0.74412261    -0.15400
F1978       F  0.57375645  0.24971249  0.64565736    -0.13900
F1979       F  0.54225659  0.16549433  0.70357010    -0.14000
F1980       F  0.56179373  0.17410619  0.57531473    -0.15400
C1981       C  0.83545216  0.25893605  0.69280039     0.14700
C1982       C  0.86511772  0.27719616  0.68170417     0.01700
C1983       C  0.88717407  0.26947411  0.68955705     0.16600
C1984       C  0.87962111  0.24394383  0.70781303     0.26000
C1985       C  0.84990203  0.22551190  0.71818979    -0.40300
C1986       C  0.82797238  0.23336997  0.71098821     0.33100
C1987       C  0.87297216  0.30412928  0.66195099     0.01700
F1988       F  0.91591801  0.28626760  0.67898872    -0.12600
F1989       F  0.79934171  0.21635975  0.72176191    -0.13100
C1990       C  0.89753020  0.33243453  0.67006338     0.16600
C1991       C  0.90528501  0.35755841  0.65099229     0.26000
C1992       C  0.88826338  0.35496676  0.62390075    -0.40200
C1993       C  0.86350588  0.32692706  0.61599744     0.33000
C1994       C  0.85605930  0.30167338  0.63466614     0.14700
F1995       F  0.91378567  0.33585514  0.69669166    -0.12600
F1996       F  0.84706954  0.32387393  0.58961987    -0.13100
F1997       F  0.92925898  0.38452290  0.65909124    -0.15400
F1998       F  0.83285877  0.27462122  0.62550766    -0.13900
F1999       F  0.81379472  0.26611712  0.68644171    -0.14000
F2000       F  0.90141918  0.23734640  0.71558672    -0.15400
C2001       C  0.88188294  0.32699161  0.83318272     0.14700
C2002       C  0.86847615  0.29850448  0.84747495     0.01700
C2003       C  0.86283781  0.29590672  0.88005041     0.16600
C2004       C  0.87080436  0.32155601  0.89810341     0.26000
C2005       C  0.88399263  0.35001235  0.88369002    -0.40300
C2006       C  0.88956097  0.35254008  0.85114364     0.33100
C2007       C  0.86128831  0.27177396  0.82832820     0.01700
F2008       F  0.85033261  0.26865303  0.89442888    -0.12600
F2009       F  0.90319464  0.37989610  0.83694030    -0.13100
C2010       C  0.88461915  0.26952326  0.81369037     0.16600
C2011       C  0.87797804  0.24511651  0.79426416     0.26000
C2012       C  0.84795173  0.22258205  0.78924155    -0.40200
C2013       C  0.82459138  0.22441925  0.80432425     0.33000
C2014       C  0.83121022  0.24894175  0.82372646     0.14700
F2015       F  0.91388052  0.29089206  0.81849997    -0.12600
F2016       F  0.79540403  0.20274540  0.79978070    -0.13100
F2017       F  0.90089970  0.24332969  0.78062150    -0.15400
F2018       F  0.80830395  0.25081607  0.83741270    -0.13900
F2019       F  0.88755548  0.33000488  0.80175736    -0.14000
F2020       F  0.86567049  0.31869267  0.92963596    -0.15400
C2021       C  0.95438523  0.12848467  0.83108592     0.14700
C2022       C  0.93566688  0.13754712  0.84548480     0.01700
C2023       C  0.93307771  0.13656978  0.87843716     0.16600
C2024       C  0.94884897  0.12634613  0.89684944     0.26000
C2025       C  0.96734279  0.11688876  0.88248278    -0.40300
C2026       C  0.96987850  0.11790413  0.84943072     0.33100
C2027       C  0.91554958  0.14379896  0.82603895     0.01700
F2028       F  0.91485099  0.14507361  0.89264917    -0.12600
F2029       F  0.98663290  0.10778759  0.83490551    -0.13100
C2030       C  0.88509016  0.12170101  0.82364373     0.16600
C2031       C  0.86562699  0.12628068  0.80442071     0.26000
C2032       C  0.87616674  0.15323536  0.78751456    -0.40200
C2033       C  0.90689485  0.17522092  0.78939736     0.33000
C2034       C  0.92654946  0.17051092  0.80859187     0.14700
F2035       F  0.87455702  0.09497721  0.83878467    -0.12600
F2036       F  0.91788890  0.20088954  0.77223600    -0.13100
F2037       F  0.83754060  0.10285988  0.79923265    -0.15400
F2038       F  0.95620035  0.19181903  0.81010384    -0.13900
F2039       F  0.95654557  0.12863935  0.79919521    -0.14000
F2040       F  0.94622268  0.12580515  0.92870692    -0.15400
C2041       C  0.90522424  0.16013046  0.66736165     0.14700
C2042       C  0.91233582  0.13810645  0.67693031     0.01700
C2043       C  0.90017380  0.12276060  0.70542026     0.16600
C2044       C  0.87979020  0.12761017  0.72233187     0.26000
C2045       C  0.87495740  0.15154036  0.71466607    -0.40300
C2046       C  0.88794228  0.16768044  0.68665092     0.33100
C2047       C  0.93072661  0.12980279  0.65660459     0.01700
F2048       F  0.90755096  0.10256848  0.71693446    -0.12600
F2049       F  0.88365839  0.19049799  0.67726449    -0.13100
C2050       C  0.95677627  0.15190548  0.64109722     0.16600
C2051       C  0.97277220  0.14366778  0.62070208     0.26000
C2052       C  0.96530320  0.11339291  0.61821442    -0.40200
C2053       C  0.93992799  0.09146271  0.63467133     0.33000
C2054       C  0.92205450  0.09938412  0.65217920     0.14700
F2055       F  0.96711834  0.18157371  0.64587503    -0.12600
F2056       F  0.93224293  0.06207840  0.63391226    -0.13100
F2057       F  0.49523676  0.16534346  0.60312698    -0.15400
F2058       F  0.89582986  0.07697897  0.66420390    -0.13900
F2059       F  0.91410643  0.17382030  0.63885368    -0.14000
F2060       F  0.86311051  0.10714514  0.74453416    -0.15400
C2061       C  0.69470907  0.07601406  0.87207959     0.14700
C2062       C  0.69324580  0.07080975  0.83949560     0.01700
C2063       C  0.66650596  0.04754262  0.82628893     0.16600
C2064       C  0.64166383  0.02957246  0.84556052     0.26000
C2065       C  0.64354110  0.03423398  0.87837598    -0.40300
C2066       C  0.67028397  0.05781907  0.89132795     0.33100
C2067       C  0.72033965  0.08901562  0.82000112     0.01700
F2068       F  0.66475873  0.04175989  0.79492705    -0.12600
F2069       F  0.67307821  0.06277371  0.92290367    -0.13100
C2070       C  0.74750882  0.09021082  0.82808219     0.16600
C2071       C  0.77397771  0.10927946  0.81199134     0.26000
C2072       C  0.77369483  0.12614382  0.78594615    -0.40200
C2073       C  0.74654509  0.12559049  0.77836143     0.33000
C2074       C  0.72004752  0.10703907  0.79515082     0.14700
F2075       F  0.74847808  0.07296373  0.85192465    -0.12600
F2076       F  0.74596752  0.14406996  0.75575369    -0.13100
F2077       F  0.79987108  0.11150215  0.82265005    -0.15400
F2078       F  0.69440525  0.10747432  0.78789582    -0.13900
F2079       F  0.72004079  0.09873416  0.88535591    -0.14000
F2080       F  0.61585191  0.00767962  0.83221968    -0.15400
C2081       C  0.73594048  0.07579206  0.69861958     0.14700
C2082       C  0.72712476  0.08867294  0.67458569     0.01700
C2083       C  0.74359491  0.11980557  0.66961474     0.16600
C2084       C  0.76834621  0.13797976  0.68877686     0.26000
C2085       C  0.77681286  0.12532801  0.71347435    -0.40300
C2086       C  0.76079270  0.09395359  0.71778857     0.33100
C2087       C  0.70024116  0.06981095  0.65516215     0.01700
F2088       F  0.73557070  0.13258247  0.64621438    -0.12600
F2089       F  0.76938717  0.08087576  0.74030930    -0.13100
C2090       C  0.67398285  0.07156280  0.65913980     0.16600
C2091       C  0.64846230  0.05395316  0.64073107     0.26000
C2092       C  0.64895658  0.03462014  0.61774628    -0.40200
C2093       C  0.67545245  0.03321306  0.61343632     0.33000
C2094       C  0.70084086  0.05046773  0.63231868     0.14700
F2095       F  0.67304509  0.09019376  0.68108177    -0.12600
F2096       F  0.67697198  0.01577352  0.59043606    -0.13100
F2097       F  0.62305266  0.05545845  0.64557125    -0.15400
F2098       F  0.72625183  0.04888838  0.62785981    -0.13900
F2099       F  0.72008594  0.04570338  0.70384306    -0.14000
F2100       F  0.78350767  0.16804904  0.68365739    -0.15400
C2101       C  0.83238735  0.66579653  0.28219776     0.47500
H2102       H  0.83232639  0.66549227  0.30837337    -0.01500
C2103       C  0.83346352  0.66786003  0.22091045     0.47500
H2104       H  0.83331515  0.66858874  0.19480243    -0.01500
C2105       C  0.80164979  0.64425683  0.26694415    -0.15200
C2106       C  0.84102630  0.69674086  0.26874714    -0.15000
C2107       C  0.85513877  0.65806249  0.26746687    -0.15400
C2108       C  0.80251620  0.64500568  0.23446917    -0.15300
C2109       C  0.84178198  0.69797168  0.23653680    -0.14900
C2110       C  0.85558080  0.65881124  0.23494206    -0.15200
O2111       O  0.55408744  0.51849068  0.47887561    -0.72400
O2112       O  0.51811869  0.55426860  0.02075336    -0.72400
O2113       O  0.52589386  0.54688351  0.46027235    -0.72500
O2114       O  0.54704805  0.52645314  0.03936423    -0.72500
O2115       O  0.59411684  0.56074873  0.02977804    -0.72500
O2116       O  0.56022846  0.59387759  0.46947928    -0.72400
O2117       O  0.56186438  0.59218265  0.03377236    -0.72400
O2118       O  0.59193616  0.56204274  0.46549179    -0.72500
Ni2119     Ni  0.53474354  0.53500095  0.49986169     1.25400
Ni2120     Ni  0.57961801  0.57979186  0.49968224     1.25400
C2121       C  0.57679693  0.53313487  0.46226071     0.89800
C2122       C  0.53283354  0.57709732  0.03709820     0.89700
C2123       C  0.53529673  0.57465983  0.45608822     0.89700
C2124       C  0.57502628  0.53590908  0.04326312     0.89900
O2125       O  0.97901104  0.53534247  0.47843864    -0.72400
O2126       O  0.94328934  0.96312006  0.02099287    -0.72400
O2127       O  0.95110293  0.97857280  0.46017576    -0.72500
O2128       O  0.97097087  0.51971108  0.03909437    -0.72500
O2129       O  0.93657932  0.53228015  0.02931541    -0.72500
O2130       O  0.90376838  0.96554086  0.46861163    -0.72400
O2131       O  0.90485801  0.96823891  0.03325534    -0.72400
O2132       O  0.93533924  0.52956107  0.46487694    -0.72500
Ni2133     Ni  0.96261360  0.49920402  0.49966387     1.25400
Ni2134     Ni  0.91754559  0.49883874  0.49897484     1.25400
C2135       C  0.96442167  0.54375253  0.46191984     0.89800
C2136       C  0.92013858  0.95456514  0.03709397     0.89700
C2137       C  0.92326601  0.96005526  0.45563452     0.89700
C2138       C  0.96170223  0.53823822  0.04269600     0.89900
O2139       O  0.53563931  0.97981339  0.02114326    -0.72400
O2140       O  0.96261009  0.94345778  0.47967796    -0.72400
O2141       O  0.97904406  0.95212018  0.04012758    -0.72500
O2142       O  0.51923024  0.97131333  0.46077497    -0.72500
O2143       O  0.53234009  0.93743376  0.47063733    -0.72500
O2144       O  0.96606751  0.90496665  0.03198479    -0.72400
O2145       O  0.96805057  0.90533418  0.46750821    -0.72400
O2146       O  0.53011637  0.93649162  0.03496272    -0.72500
Ni2147     Ni  0.49915107  0.96318582  0.00042327     1.25400
Ni2148     Ni  0.99911214  0.91849523  0.00128936     1.25400
C2149       C  0.54422375  0.96542153  0.03765165     0.89800
C2150       C  0.95400841  0.92023933  0.46387742     0.89700
C2151       C  0.96065579  0.92444807  0.04494755     0.89700
C2152       C  0.53798432  0.96227804  0.45712562     0.89900
C2153       C  0.51511969  0.61864954  0.09908831     0.04300
C2154       C  0.98310421  0.60402210  0.09823127     0.04300
C2155       C  0.96707753  0.57896695  0.07837738    -0.16200
C2156       C  0.98162701  0.56736276  0.06026558     0.04300
C2157       C  0.51449827  0.58425528  0.05911256     0.04300
C2158       C  0.53014946  0.60886961  0.07908535    -0.16200
H2159       H  0.55456603  0.62049834  0.07938584     0.06300
H2160       H  0.94269912  0.56785997  0.07742941     0.06300
C2161       C  0.89706097  0.88119199  0.10294161     0.04300
C2162       C  0.87909341  0.89475214  0.09990820     0.04300
C2163       C  0.88719902  0.91837614  0.07839451    -0.16200
C2164       C  0.91322713  0.92926595  0.05983444     0.04300
C2165       C  0.93214640  0.91551868  0.06341515     0.04300
C2166       C  0.92316171  0.89162334  0.08472907    -0.16200
H2167       H  0.93665402  0.88087502  0.08720515     0.06300
H2168       H  0.87306904  0.92844623  0.07629585     0.06300
C2169       C  0.98437894  0.60640505  0.40203068     0.04300
C2170       C  0.51622114  0.62090596  0.40080262     0.04300
C2171       C  0.53141849  0.60959873  0.41866393    -0.16200
C2172       C  0.51595178  0.58417639  0.43791276     0.04300
C2173       C  0.98311023  0.56984292  0.44017950     0.04300
C2174       C  0.96831530  0.58138709  0.42185288    -0.16200
H2175       H  0.94393812  0.57073298  0.42283079     0.06300
H2176       H  0.55583700  0.62083528  0.41744287     0.06300
C2177       C  0.87960010  0.89518744  0.39873985     0.04300
C2178       C  0.89322095  0.87734211  0.40273906     0.04300
C2179       C  0.91708329  0.88615589  0.42414883    -0.16200
C2180       C  0.92818383  0.91265346  0.44168924     0.04300
C2181       C  0.91419795  0.93125850  0.43766131     0.04300
C2182       C  0.89001007  0.92161588  0.41638005    -0.16200
H2183       H  0.87918082  0.93495515  0.41329934     0.06300
H2184       H  0.92739301  0.87229707  0.42676423     0.06300
C2185       C  0.61780672  0.51532164  0.39958477     0.04300
C2186       C  0.60357073  0.98341661  0.40116012     0.04300
C2187       C  0.57880475  0.96765054  0.42150522    -0.16200
C2188       C  0.56700371  0.98212115  0.43929657     0.04300
C2189       C  0.58374468  0.51486632  0.44005411     0.04300
C2190       C  0.60792142  0.53033523  0.41946236    -0.16200
H2191       H  0.61924316  0.55466239  0.41870637     0.06300
H2192       H  0.56811606  0.94343435  0.42330424     0.06300
C2193       C  0.60707306  0.98498017  0.09695381     0.04300
C2194       C  0.62191489  0.51666852  0.09784189     0.04300
C2195       C  0.61074817  0.53196621  0.07991044    -0.16200
C2196       C  0.58489556  0.51667943  0.06112101     0.04300
C2197       C  0.57043302  0.98402486  0.05907232     0.04300
C2198       C  0.58188733  0.96916198  0.07729186    -0.16200
H2199       H  0.57087208  0.94485971  0.07653098     0.06300
H2200       H  0.62228060  0.55629414  0.08094540     0.06300
C2201       C  0.66721321  0.83301429  0.27922183     0.47500
H2202       H  0.66822447  0.83260449  0.30532951    -0.01500
C2203       C  0.66455601  0.83252110  0.21790810     0.47500
H2204       H  0.66412937  0.83278775  0.19174772    -0.01500
C2205       C  0.64406877  0.80236028  0.26534758    -0.15200
C2206       C  0.65799740  0.85516084  0.26586307    -0.15000
C2207       C  0.69728661  0.84139661  0.26313115    -0.15400
C2208       C  0.64308630  0.80176668  0.23286598    -0.15300
C2209       C  0.65670377  0.85485944  0.23331516    -0.14900
C2210       C  0.69575388  0.84101718  0.23098110    -0.15200
C2211       C  0.62332808  0.95198262  0.16945491     0.14700
C2212       C  0.63195244  0.93263333  0.15585036     0.01700
C2213       C  0.63285638  0.93081480  0.12292361     0.16600
C2214       C  0.62521462  0.94820417  0.10373645     0.26000
C2215       C  0.61649878  0.96758205  0.11728546    -0.40300
C2216       C  0.61550352  0.96925637  0.15029874     0.33100
C2217       C  0.63843950  0.91308193  0.17593931     0.01700
F2218       F  0.64099074  0.91204299  0.10944830    -0.12600
F2219       F  0.60595330  0.98683778  0.16392745    -0.13100
C2220       C  0.61668352  0.88266403  0.17920860     0.16600
C2221       C  0.62257628  0.86386055  0.19804746     0.26000
C2222       C  0.65040844  0.87512281  0.21377079    -0.40200
C2223       C  0.67202983  0.90573780  0.21089458     0.33000
C2224       C  0.66601828  0.92466543  0.19214344     0.14700
F2225       F  0.58931812  0.87143881  0.16496161    -0.12600
F2226       F  0.69884231  0.91724649  0.22629192    -0.13100
F2227       F  0.59992961  0.83546313  0.20353140    -0.15400
F2228       F  0.68706977  0.95421753  0.18960988    -0.13900
F2229       F  0.62157612  0.95337165  0.20126252    -0.14000
F2230       F  0.62637052  0.94622040  0.07192579    -0.15400
C2231       C  0.66132697  0.90575678  0.33342267     0.14700
C2232       C  0.63813859  0.91168566  0.32506688     0.01700
C2233       C  0.62130012  0.89832585  0.29755714     0.16600
C2234       C  0.62618576  0.87826341  0.28022518     0.26000
C2235       C  0.65095304  0.87432086  0.28672242    -0.40300
C2236       C  0.66815230  0.88798284  0.31408023     0.33100
C2237       C  0.62997039  0.92996306  0.34565162     0.01700
F2238       F  0.59955230  0.90420988  0.28745222    -0.12600
F2239       F  0.69110059  0.88361479  0.32299426    -0.13100
C2240       C  0.65214074  0.95707668  0.35939596     0.16600
C2241       C  0.64379214  0.97354764  0.37892933     0.26000
C2242       C  0.61320933  0.96543148  0.38191693    -0.40200
C2243       C  0.59119594  0.93873332  0.36739644     0.33000
C2244       C  0.59940484  0.92035024  0.35146711     0.14700
F2245       F  0.68191402  0.96799435  0.35373463    -0.12600
F2246       F  0.56144632  0.93019580  0.36849514    -0.13100
F2247       F  0.66579631  0.49712283  0.39528727    -0.15400
F2248       F  0.57718908  0.89281143  0.34212253    -0.13900
F2249       F  0.67680481  0.91618261  0.36088296    -0.14000
F2250       F  0.60497397  0.86093803  0.25883683    -0.15400
C2251       C  0.76072279  0.83508210  0.30199253     0.14700
C2252       C  0.77787214  0.86369573  0.31572171     0.01700
C2253       C  0.76893009  0.88521443  0.31077306     0.16600
C2254       C  0.74318874  0.87812446  0.29292354     0.26000
C2255       C  0.72522689  0.84910187  0.28083727    -0.40300
C2256       C  0.73452963  0.82783507  0.28475272     0.33100
C2257       C  0.80450866  0.87092673  0.33588362     0.01700
F2258       F  0.78470883  0.91293081  0.32386351    -0.12600
F2259       F  0.71833414  0.80014524  0.27169689    -0.13100
C2260       C  0.83259341  0.89681942  0.33013262     0.16600
C2261       C  0.85700793  0.90463595  0.35052525     0.26000
C2262       C  0.85396022  0.88642577  0.37664518    -0.40200
C2263       C  0.82615391  0.86026843  0.38206846     0.33000
C2264       C  0.80160637  0.85265581  0.36197821     0.14700
F2265       F  0.83641274  0.91450815  0.30469771    -0.12600
F2266       F  0.82248156  0.84265337  0.40750930    -0.13100
F2267       F  0.88374284  0.92991976  0.34470277    -0.15400
F2268       F  0.77462303  0.82805632  0.36878066    -0.13900
F2269       F  0.76946965  0.81425039  0.30509912    -0.14000
F2270       F  0.73624163  0.89987611  0.28677068    -0.15400
C2271       C  0.57448772  0.73666351  0.30162270     0.14700
C2272       C  0.58761422  0.72588556  0.32343554     0.01700
C2273       C  0.61913342  0.74095836  0.32685407     0.16600
C2274       C  0.63734208  0.76632350  0.30858768     0.26000
C2275       C  0.62437493  0.77655705  0.28599948    -0.40300
C2276       C  0.59275691  0.76181921  0.28295603     0.33100
C2277       C  0.56862848  0.69884860  0.34263898     0.01700
F2278       F  0.63225694  0.73103278  0.34794482    -0.12600
F2279       F  0.57962123  0.77190669  0.26206049    -0.13100
C2280       C  0.57033287  0.67267237  0.33842738     0.16600
C2281       C  0.55324935  0.64739625  0.35730270     0.26000
C2282       C  0.53433396  0.64795353  0.38088073    -0.40200
C2283       C  0.53285491  0.67430579  0.38523387     0.33000
C2284       C  0.54963584  0.69944373  0.36601424     0.15400
F2285       F  0.58839016  0.67156367  0.31579649    -0.12600
F2286       F  0.51566671  0.67590948  0.40853102    -0.13100
F2287       F  0.55472671  0.62212161  0.35220546    -0.15400
F2288       F  0.54803244  0.72469116  0.37077017    -0.13900
F2289       F  0.54404674  0.72244177  0.29800438    -0.14000
F2290       F  0.66774517  0.78020368  0.31211968    -0.15400
C2291       C  0.82897783  0.88256899  0.17018491     0.14700
C2292       C  0.80013016  0.86792685  0.15622692     0.01700
C2293       C  0.79736256  0.86143131  0.12382774     0.16600
C2294       C  0.82307832  0.87006462  0.10553526     0.26000
C2295       C  0.85186660  0.88492595  0.11944697    -0.40300
C2296       C  0.85465994  0.89096399  0.15191619     0.33100
C2297       C  0.77309528  0.86080982  0.17508089     0.01700
F2298       F  0.76980151  0.84757317  0.10973853    -0.12600
F2299       F  0.88233003  0.90566880  0.16571892    -0.13100
C2300       C  0.77091918  0.88402743  0.18991148     0.16600
C2301       C  0.74536206  0.87760767  0.20742562     0.26000
C2302       C  0.72170411  0.84791126  0.21055823    -0.40200
C2303       C  0.72352718  0.82467765  0.19543773     0.33000
C2304       C  0.74912884  0.83106288  0.17784389     0.14700
F2305       F  0.79339968  0.91300807  0.18701616    -0.12600
F2306       F  0.70084562  0.79579046  0.19837194    -0.13100
F2307       F  0.74359176  0.90041831  0.22117190    -0.15400
F2308       F  0.75086537  0.80819489  0.16410799    -0.13900
F2309       F  0.83223429  0.88882391  0.20149647    -0.14000
F2310       F  0.81995098  0.86400357  0.07419269    -0.15400
C2311       C  0.54781409  0.66742951  0.17209188     0.14700
C2312       C  0.57065122  0.69429724  0.15874823     0.01700
C2313       C  0.57556069  0.69576901  0.12607803     0.16600
C2314       C  0.55728471  0.67132639  0.10690480     0.26000
C2315       C  0.53414360  0.64450182  0.12005321    -0.40300
C2316       C  0.52998675  0.64254542  0.15293487     0.33100
C2317       C  0.58879654  0.72131369  0.17833974     0.01700
F2318       F  0.59814344  0.72103643  0.11266217    -0.12600
F2319       F  0.00870735  0.61652736  0.16649579    -0.13100
C2320       C  0.60610237  0.72076424  0.20388737     0.16600
C2321       C  0.62428965  0.74694885  0.22113193     0.26000
C2322       C  0.62500958  0.77406443  0.21357135    -0.40200
C2323       C  0.60883105  0.77464877  0.18691191     0.33000
C2324       C  0.59030934  0.74849019  0.17012464     0.14700
F2325       F  0.60626484  0.69515649  0.21142155    -0.12600
F2326       F  0.61116446  0.80053023  0.17636084    -0.13100
F2327       F  0.64245384  0.74608953  0.24403704    -0.15400
F2328       F  0.57376123  0.74975317  0.14562549    -0.13900
F2329       F  0.54231417  0.66552858  0.20352635    -0.14000
F2330       F  0.56176531  0.67412460  0.07525582    -0.15400
C2331       C  0.83544805  0.75892302  0.19278534     0.14700
C2332       C  0.86511365  0.77718527  0.18168885     0.01700
C2333       C  0.88717137  0.76946562  0.18954513     0.16600
C2334       C  0.87962057  0.74393757  0.20780447     0.26000
C2335       C  0.84990215  0.72550418  0.21818208    -0.40300
C2336       C  0.82797107  0.73336014  0.21097860     0.33100
C2337       C  0.87296768  0.80411715  0.16193092     0.01700
F2338       F  0.91591487  0.78625825  0.17897541    -0.12600
F2339       F  0.79934171  0.71635173  0.22175637    -0.13100
C2340       C  0.89753365  0.83242172  0.17003242     0.16600
C2341       C  0.90529327  0.85754187  0.15095271     0.26000
C2342       C  0.88826646  0.85494947  0.12386513    -0.40200
C2343       C  0.86350214  0.82691057  0.11597181     0.33000
C2344       C  0.85605072  0.80166022  0.13464885     0.14700
F2345       F  0.91379129  0.83584631  0.19666000    -0.12600
F2346       F  0.84706345  0.82385398  0.08959535    -0.13100
F2347       F  0.92927726  0.88450386  0.15903988    -0.15400
F2348       F  0.83284040  0.77460997  0.12550077    -0.13900
F2349       F  0.81378720  0.76609813  0.18642162    -0.14000
F2350       F  0.90142083  0.73734430  0.21558136    -0.15400
C2351       C  0.88194270  0.82700590  0.33316846     0.14700
C2352       C  0.86848964  0.79851420  0.34745662     0.01700
C2353       C  0.86281450  0.79591844  0.38002503     0.16600
C2354       C  0.87078578  0.82157152  0.39807364     0.26000
C2355       C  0.88401797  0.85003089  0.38366339    -0.40300
C2356       C  0.88962552  0.85255833  0.35112529     0.33100
C2357       C  0.86129636  0.77177717  0.32831571     0.01700
F2358       F  0.85027249  0.76866269  0.39440316    -0.12600
F2359       F  0.90330200  0.87991717  0.33692762    -0.13100
C2360       C  0.88462473  0.76952075  0.31367953     0.16600
C2361       C  0.87798102  0.74511103  0.29425753     0.26000
C2362       C  0.84795447  0.72257794  0.28923564    -0.40200
C2363       C  0.82459579  0.72441719  0.30432012     0.33000
C2364       C  0.83121716  0.74894259  0.32371999     0.14700
F2365       F  0.91388736  0.79088675  0.31848754    -0.12600
F2366       F  0.79540788  0.70274261  0.29978103    -0.13100
F2367       F  0.90090138  0.74332039  0.28061768    -0.15400
F2368       F  0.80831207  0.75081670  0.33740963    -0.13900
F2369       F  0.88765774  0.83002034  0.30175153    -0.14000
F2370       F  0.86561608  0.81870921  0.42959971    -0.15400
C2371       C  0.95443989  0.62852452  0.33106068     0.14700
C2372       C  0.93572174  0.63758500  0.34546364     0.01700
C2373       C  0.93311557  0.63658165  0.37841484     0.16600
C2374       C  0.94886801  0.62633320  0.39682188     0.26000
C2375       C  0.96736057  0.61687665  0.38245149    -0.40300
C2376       C  0.96991272  0.61791699  0.34939994     0.33100
C2377       C  0.91559998  0.64383382  0.32602207     0.01700
F2378       F  0.91488420  0.64507781  0.39263003    -0.12600
F2379       F  0.98666058  0.60779610  0.33486865    -0.13100
C2380       C  0.88514295  0.62172904  0.32363047     0.16600
C2381       C  0.86567011  0.62630304  0.30441819     0.26000
C2382       C  0.87619887  0.65325636  0.28751279    -0.40200
C2383       C  0.90692479  0.67525025  0.28939273     0.33000
C2384       C  0.92658853  0.67054807  0.30858121     0.14700
F2385       F  0.87462115  0.59500441  0.33876666    -0.12600
F2386       F  0.91790780  0.70091988  0.27223509    -0.13100
F2387       F  0.83758299  0.60287915  0.29924272    -0.15400
F2388       F  0.95623599  0.69186605  0.31009385    -0.13900
F2389       F  0.95661498  0.62870186  0.29917028    -0.14000
F2390       F  0.94622038  0.62576277  0.42867803    -0.15400
C2391       C  0.90527398  0.66014325  0.16738642     0.14700
C2392       C  0.91237069  0.63810872  0.17695633     0.01700
C2393       C  0.90018951  0.62275425  0.20543763     0.16600
C2394       C  0.87980335  0.62760731  0.22233958     0.26000
C2395       C  0.87498127  0.65154374  0.21467163    -0.40300
C2396       C  0.88798085  0.66768918  0.18666375     0.33100
C2397       C  0.93075959  0.62979805  0.15663634     0.01700
F2398       F  0.90754873  0.60254880  0.21695110    -0.12600
F2399       F  0.88369645  0.69050484  0.17727137    -0.13100
C2400       C  0.95681930  0.65189608  0.14113954     0.16600
C2401       C  0.97280824  0.64365180  0.12074280     0.26000
C2402       C  0.96532573  0.61337365  0.11824856    -0.40200
C2403       C  0.93994031  0.59144690  0.13469523     0.33000
C2404       C  0.92207186  0.59937646  0.15220074     0.14700
F2405       F  0.96717596  0.68156575  0.14592602    -0.12600
F2406       F  0.93223713  0.56205785  0.13392444    -0.13100
F2407       F  0.49523535  0.66534796  0.10312687    -0.15400
F2408       F  0.89583561  0.57697675  0.16421049    -0.13900
F2409       F  0.91417920  0.67384541  0.13888683    -0.14000
F2410       F  0.86310927  0.60713952  0.24453368    -0.15400
C2411       C  0.69472419  0.57605469  0.37209570     0.14700
C2412       C  0.69327356  0.57082849  0.33951769     0.01700
C2413       C  0.66654439  0.54754420  0.32631426     0.16600
C2414       C  0.64169743  0.52958082  0.34558229     0.26000
C2415       C  0.64356214  0.53425903  0.37839501    -0.40300
C2416       C  0.67029696  0.55786178  0.39134353     0.33100
C2417       C  0.72036813  0.58903060  0.32002415     0.01700
F2418       F  0.66481320  0.54173797  0.29495897    -0.12600
F2419       F  0.67308210  0.56283849  0.42291550    -0.13100
C2420       C  0.74753897  0.59023270  0.32811203     0.16600
C2421       C  0.77400325  0.60928432  0.31200435     0.26000
C2422       C  0.77371539  0.62613546  0.28594823    -0.40200
C2423       C  0.74656555  0.62558169  0.27836385     0.33000
C2424       C  0.72007083  0.60703732  0.29515932     0.14700
F2425       F  0.74851355  0.57300674  0.35197437    -0.12600
F2426       F  0.74598506  0.64405558  0.25575135    -0.13100
F2427       F  0.79989716  0.61150352  0.32265666    -0.15400
F2428       F  0.69442552  0.60746333  0.28789535    -0.13900
F2429       F  0.72004580  0.59879344  0.38536658    -0.14000
F2430       F  0.61589393  0.50767653  0.33223979    -0.15400
C2431       C  0.73594104  0.57579473  0.19860962     0.14700
C2432       C  0.72711088  0.58868767  0.17460133     0.01700
C2433       C  0.74357018  0.61982414  0.16965637     0.16600
C2434       C  0.76833807  0.63798723  0.18880459     0.26000
C2435       C  0.77682191  0.62532328  0.21347477    -0.40300
C2436       C  0.76080159  0.59394712  0.21777425     0.33100
C2437       C  0.70023322  0.56982965  0.15516710     0.01700
F2438       F  0.73551981  0.63261593  0.14629536    -0.12600
F2439       F  0.76940418  0.58085934  0.24027583    -0.13100
C2440       C  0.67394601  0.57152038  0.15919106     0.16600
C2441       C  0.64842998  0.55390643  0.14077643     0.26000
C2442       C  0.64895531  0.53462462  0.11774808    -0.40200
C2443       C  0.67547864  0.53328011  0.11339087     0.33000
C2444       C  0.70086743  0.55054780  0.13226848     0.14700
F2445       F  0.67297707  0.59009726  0.18118054    -0.12600
F2446       F  0.67702231  0.51588986  0.09034902    -0.13100
F2447       F  0.62299485  0.55535636  0.14565214    -0.15400
F2448       F  0.72631137  0.54904150  0.12775271    -0.13900
F2449       F  0.72009280  0.54570248  0.20381183    -0.14000
F2450       F  0.78349929  0.66805813  0.18369963    -0.15400
C2451       C  0.83237712  0.66583368  0.78222884     0.47500
H2452       H  0.83230695  0.66551406  0.80840407    -0.01500
C2453       C  0.83348136  0.66793929  0.72094398     0.47500
H2454       H  0.83334249  0.66868679  0.69483664    -0.01500
C2455       C  0.80165153  0.64428572  0.76695610    -0.15200
C2456       C  0.84100264  0.69678104  0.76880052    -0.15000
C2457       C  0.85515048  0.65813171  0.76749268    -0.15400
C2458       C  0.80253738  0.64505750  0.73448184    -0.15300
C2459       C  0.84177042  0.69803056  0.73659323    -0.14900
C2460       C  0.85561080  0.65890673  0.73496778    -0.15200
O2461       O  0.55405494  0.51846426  0.97880727    -0.72400
O2462       O  0.51814819  0.55431764  0.52078196    -0.72400
O2463       O  0.52581925  0.54682824  0.96023562    -0.72500
O2464       O  0.54704067  0.52646968  0.53942413    -0.72500
O2465       O  0.59412038  0.56076992  0.52988547    -0.72500
O2466       O  0.56015748  0.59382885  0.96941422    -0.72400
O2467       O  0.56188648  0.59221911  0.53383983    -0.72400
O2468       O  0.59187660  0.56201669  0.96538226    -0.72500
Ni2469     Ni  0.53471186  0.53496318  0.99981405     1.25400
Ni2470     Ni  0.57957875  0.57975961  0.99959495     1.25400
C2471       C  0.57674003  0.53310886  0.96216043     0.89800
C2472       C  0.53285355  0.57713742  0.53714241     0.89700
C2473       C  0.53522044  0.57460380  0.95603710     0.89700
C2474       C  0.57501640  0.53592712  0.54335442     0.89900
O2475       O  0.97896421  0.53532558  0.97845584    -0.72400
O2476       O  0.94328714  0.96309510  0.52099761    -0.72400
O2477       O  0.95113444  0.97861741  0.96017482    -0.72500
O2478       O  0.97098255  0.51973596  0.53908018    -0.72500
O2479       O  0.93659010  0.53229883  0.52927413    -0.72500
O2480       O  0.90380014  0.96559537  0.96859350    -0.72400
O2481       O  0.90485626  0.96821146  0.53327309    -0.72400
O2482       O  0.93528231  0.52952957  0.96491431    -0.72500
Ni2483     Ni  0.96258547  0.49918451  0.99967554     1.25400
Ni2484     Ni  0.91751557  0.49881305  0.99901919     1.25400
C2485       C  0.96436299  0.54372593  0.96194293     0.89800
C2486       C  0.92014222  0.95454302  0.53710741     0.89700
C2487       C  0.92329833  0.96010688  0.95562483     0.89700
C2488       C  0.96170716  0.53826008  0.54266891     0.89900
O2489       O  0.53561923  0.97982676  0.52110638    -0.72400
O2490       O  0.96263875  0.94350307  0.97967285    -0.72400
O2491       O  0.97905750  0.95210922  0.54012312    -0.72500
O2492       O  0.51928103  0.97130321  0.96080668    -0.72500
O2493       O  0.53238994  0.93742479  0.97067769    -0.72500
O2494       O  0.96607638  0.90495206  0.53199816    -0.72400
O2495       O  0.96807681  0.90537847  0.96750184    -0.72400
O2496       O  0.53009362  0.93650433  0.53492458    -0.72500
Ni2497     Ni  0.49912076  0.96320413  0.50040235     1.25400
Ni2498     Ni  0.99910370  0.91846667  0.50127736     1.25400
C2499       C  0.54420786  0.96543404  0.53760858     0.89800
C2500       C  0.95403769  0.92028678  0.96386982     0.89700
C2501       C  0.96067264  0.92443976  0.54496129     0.89700
C2502       C  0.53804122  0.96227326  0.95717125     0.89900
C2503       C  0.51507289  0.61867871  0.59909558     0.04300
C2504       C  0.98304562  0.60407110  0.59814414     0.04300
C2505       C  0.96704303  0.57899484  0.57831214    -0.16200
C2506       C  0.98161512  0.56738872  0.56023814     0.04300
C2507       C  0.51450110  0.58428675  0.55914361     0.04300
C2508       C  0.53012918  0.60890632  0.57911738    -0.16200
H2509       H  0.55454466  0.62054311  0.57943756     0.06300
H2510       H  0.94266534  0.56787751  0.57734530     0.06300
C2511       C  0.89710194  0.88121980  0.60299593     0.04300
C2512       C  0.87910984  0.89474979  0.59993192     0.04300
C2513       C  0.88720893  0.91836212  0.57840775    -0.16200
C2514       C  0.91324229  0.92925570  0.55985505     0.04300
C2515       C  0.93217293  0.91552179  0.56344659     0.04300
C2516       C  0.92320561  0.89165027  0.58478736    -0.16200
H2517       H  0.93670786  0.88091385  0.58728018     0.06300
H2518       H  0.87306493  0.92841517  0.57628901     0.06300
C2519       C  0.98429358  0.60636200  0.90203767     0.04300
C2520       C  0.51615421  0.62083125  0.90071569     0.04300
C2521       C  0.53134443  0.60951832  0.91857888    -0.16200
C2522       C  0.51587555  0.58411529  0.93785078     0.04300
C2523       C  0.98303791  0.56980790  0.94018911     0.04300
C2524       C  0.96823650  0.58135419  0.92187497    -0.16200
H2525       H  0.94386105  0.57071134  0.92287559     0.06300
H2526       H  0.55576218  0.62074458  0.91735287     0.06300
C2527       C  0.87960359  0.89522740  0.89876870     0.04300
C2528       C  0.89321606  0.87737706  0.90277073     0.04300
C2529       C  0.91709253  0.88619529  0.92416158    -0.16200
C2530       C  0.92821049  0.91270264  0.94168577     0.04300
C2531       C  0.91422801  0.93131105  0.93765649     0.04300
C2532       C  0.89003063  0.92166604  0.91638869    -0.16200
H2533       H  0.87920652  0.93500970  0.91330345     0.06300
H2534       H  0.92739634  0.87233103  0.92677685     0.06300
C2535       C  0.61771253  0.51527506  0.89945994     0.04300
C2536       C  0.60365835  0.98344489  0.90123525     0.04300
C2537       C  0.57889170  0.96766698  0.92157859    -0.16200
C2538       C  0.56707286  0.98212615  0.93936381     0.04300
C2539       C  0.58366434  0.51483755  0.93993584     0.04300
C2540       C  0.60782673  0.53029802  0.91932477    -0.16200
H2541       H  0.61914497  0.55462452  0.91855567     0.06300
H2542       H  0.56821329  0.94345168  0.92337639     0.06300
C2543       C  0.60703580  0.98496303  0.59693400     0.04300
C2544       C  0.62191704  0.51670068  0.59792395     0.04300
C2545       C  0.61073426  0.53199164  0.58000732    -0.16200
C2546       C  0.58487625  0.51669920  0.56122805     0.04300
C2547       C  0.57042672  0.98403277  0.55902155     0.04300
C2548       C  0.58186174  0.96915861  0.57725283    -0.16200
H2549       H  0.57083175  0.94485540  0.57649517     0.06300
H2550       H  0.62227033  0.55632028  0.58102886     0.06300
C2551       C  0.66725923  0.83305336  0.77924533     0.47500
H2552       H  0.66830766  0.83267850  0.80535314    -0.01500
C2553       C  0.66452224  0.83250737  0.71793519     0.47500
H2554       H  0.66406556  0.83275418  0.69177564    -0.01500
C2555       C  0.64407759  0.80239033  0.76541479    -0.15200
C2556       C  0.65805040  0.85520415  0.76588756    -0.15000
C2557       C  0.69730608  0.84140258  0.76311400    -0.15400
C2558       C  0.64305244  0.80176874  0.73293156    -0.15300
C2559       C  0.65670848  0.85487421  0.73334313    -0.14900
C2560       C  0.69573271  0.84099217  0.73096524    -0.15200
C2561       C  0.62325644  0.95197547  0.66947533     0.14700
C2562       C  0.63183983  0.93258573  0.65589329     0.01700
C2563       C  0.63271930  0.93072968  0.62296799     0.16600
C2564       C  0.62509977  0.94812510  0.60376112     0.26000
C2565       C  0.61642683  0.96754602  0.61728752    -0.40300
C2566       C  0.61544700  0.96925013  0.65029991     0.33100
C2567       C  0.63834072  0.91305418  0.67600400     0.01700
F2568       F  0.64081978  0.91192383  0.60951262    -0.12600
F2569       F  0.60593243  0.98686768  0.66391128    -0.13100
C2570       C  0.61658889  0.88263927  0.67931816     0.16600
C2571       C  0.62251598  0.86384915  0.69814211     0.26000
C2572       C  0.65037816  0.87512203  0.71380795    -0.40200
C2573       C  0.67198493  0.90573985  0.71090769     0.33000
C2574       C  0.66594046  0.92465249  0.69216975     0.14700
F2575       F  0.58919646  0.87140439  0.66512954    -0.12600
F2576       F  0.69881439  0.91726850  0.72627316    -0.13100
F2577       F  0.59987837  0.83545618  0.70366950    -0.15400
F2578       F  0.68698109  0.95420600  0.68961271    -0.13900
F2579       F  0.62153890  0.95341166  0.70128156    -0.14000
F2580       F  0.62624318  0.94611023  0.57195294    -0.15400
C2581       C  0.66151388  0.90588454  0.83341571     0.14700
C2582       C  0.63829082  0.91178116  0.82511158     0.01700
C2583       C  0.62141363  0.89839889  0.79762842     0.16600
C2584       C  0.62626611  0.87831466  0.78030104     0.26000
C2585       C  0.65105331  0.87439412  0.78674711    -0.40300
C2586       C  0.66832153  0.88810892  0.81405127     0.33100
C2587       C  0.63011581  0.93003900  0.84572063     0.01700
F2588       F  0.59965423  0.90427693  0.78755021    -0.12600
F2589       F  0.69132531  0.88379474  0.82288228    -0.13100
C2590       C  0.65227370  0.95716510  0.85945410     0.16600
C2591       C  0.64390817  0.97362191  0.87899001     0.26000
C2592       C  0.61331787  0.96547896  0.88198726    -0.40200
C2593       C  0.59131813  0.93876806  0.86747804     0.33000
C2594       C  0.59954653  0.92039706  0.85155688     0.14700
F2595       F  0.68204914  0.96810955  0.85378002    -0.12600
F2596       F  0.56156241  0.93020533  0.86857915    -0.13100
F2597       F  0.66568978  0.49705052  0.89521279    -0.15400
F2598       F  0.57734488  0.89284243  0.84223481    -0.13900
F2599       F  0.67704250  0.91634212  0.86084360    -0.14000
F2600       F  0.60500901  0.86095095  0.75896897    -0.15400
C2601       C  0.76063598  0.83505690  0.80218532     0.14700
C2602       C  0.77787407  0.86373398  0.81575186     0.01700
C2603       C  0.76904056  0.88530971  0.81059888     0.16600
C2604       C  0.74330605  0.87820737  0.79272643     0.26000
C2605       C  0.72526534  0.84913393  0.78079376    -0.40300
C2606       C  0.73446818  0.82781178  0.78489968     0.33100
C2607       C  0.80449577  0.87097420  0.83594557     0.01700
F2608       F  0.78490999  0.91309200  0.82352392    -0.12600
F2609       F  0.71819445  0.80006414  0.77199272    -0.13100
C2610       C  0.83263283  0.89676181  0.83007987     0.16600
C2611       C  0.85705050  0.90457959  0.85046835     0.26000
C2612       C  0.85395655  0.88646246  0.87668824    -0.40200
C2613       C  0.82610174  0.86040095  0.88222477     0.33000
C2614       C  0.80154354  0.85280350  0.86215367     0.14700
F2615       F  0.83650319  0.91434019  0.80453143    -0.12600
F2616       F  0.82240313  0.84286573  0.90774603    -0.13100
F2617       F  0.88383646  0.92976726  0.84454013    -0.15400
F2618       F  0.77451084  0.82831858  0.86907326    -0.13900
F2619       F  0.76926900  0.81415639  0.80549936    -0.14000
F2620       F  0.73641522  0.89997790  0.78644021    -0.15400
C2621       C  0.57450018  0.73668466  0.80169172     0.14700
C2622       C  0.58762625  0.72591171  0.82350969     0.01700
C2623       C  0.61914201  0.74101529  0.82696665     0.16600
C2624       C  0.63734951  0.76639382  0.80871429     0.26000
C2625       C  0.62438492  0.77661126  0.78610241    -0.40300
C2626       C  0.59276671  0.76185729  0.78304595     0.33100
C2627       C  0.56863766  0.69885136  0.84268067     0.01700
F2628       F  0.63226341  0.73110312  0.84807572    -0.12600
F2629       F  0.57962712  0.77193886  0.76214884    -0.13100
C2630       C  0.57034419  0.67267956  0.83843426     0.16600
C2631       C  0.55322595  0.64737080  0.85725739     0.26000
C2632       C  0.53428200  0.64789600  0.88082259    -0.40200
C2633       C  0.53280968  0.67424655  0.88521559     0.33000
C2634       C  0.54961826  0.69941285  0.86604399     0.15400
F2635       F  0.58843546  0.67160677  0.81582038    -0.12600
F2636       F  0.51560196  0.67582150  0.90850903    -0.13100
F2637       F  0.55470217  0.62210005  0.85212588    -0.15400
F2638       F  0.54801424  0.72465503  0.87083574    -0.13900
F2639       F  0.54406139  0.72243704  0.79804274    -0.14000
F2640       F  0.66774925  0.78029765  0.81228159    -0.15400
C2641       C  0.82891144  0.88259623  0.67012768     0.14700
C2642       C  0.80007335  0.86787384  0.65615221     0.01700
C2643       C  0.79733719  0.86129581  0.62377446     0.16600
C2644       C  0.82307781  0.86995366  0.60551158     0.26000
C2645       C  0.85185749  0.88489713  0.61944043    -0.40300
C2646       C  0.85461633  0.89099169  0.65189626     0.33100
C2647       C  0.77301842  0.86076149  0.67496930     0.01700
F2648       F  0.76978188  0.84733091  0.60967609    -0.12600
F2649       F  0.88227377  0.90575152  0.66571998    -0.13100
C2650       C  0.77075984  0.88400224  0.68963073     0.16600
C2651       C  0.74521753  0.87758280  0.70717408     0.26000
C2652       C  0.72165621  0.84786496  0.71050465    -0.40200
C2653       C  0.72355140  0.82460556  0.69553507     0.33000
C2654       C  0.74913710  0.83099170  0.67790617     0.14700
F2655       F  0.79315295  0.91300069  0.68655443    -0.12600
F2656       F  0.70095732  0.79569909  0.69864791    -0.13100
F2657       F  0.74337487  0.90041174  0.72077072    -0.15400
F2658       F  0.75094795  0.80810799  0.66431466    -0.13900
F2659       F  0.83213486  0.88892927  0.70142134    -0.14000
F2660       F  0.81998347  0.86383720  0.57418130    -0.15400
C2661       C  0.54766543  0.66744476  0.67212762     0.14700
C2662       C  0.57053390  0.69430962  0.65881165     0.01700
C2663       C  0.57549130  0.69578698  0.62615030     0.16600
C2664       C  0.55723388  0.67135343  0.60695721     0.26000
C2665       C  0.53406696  0.64452893  0.62007786    -0.40300
C2666       C  0.52985787  0.64256846  0.65295268     0.33100
C2667       C  0.58867331  0.72131473  0.67842245     0.01700
F2668       F  0.59810870  0.72104852  0.61276319    -0.12600
F2669       F  0.00853499  0.61664318  0.66642011    -0.13100
C2670       C  0.60594105  0.72073796  0.70399342     0.16600
C2671       C  0.62414885  0.74691688  0.72123880     0.26000
C2672       C  0.62492420  0.77405662  0.71366027    -0.40200
C2673       C  0.60876160  0.77465910  0.68699293     0.33000
C2674       C  0.59022950  0.74850857  0.67019740     0.14700
F2675       F  0.60605510  0.69510915  0.71154411    -0.12600
F2676       F  0.61112261  0.80055157  0.67643806    -0.13100
F2677       F  0.64228162  0.74602442  0.74415969    -0.15400
F2678       F  0.57372076  0.74979872  0.64567351    -0.13900
F2679       F  0.54212120  0.66553673  0.70355276    -0.14000
F2680       F  0.56176158  0.67415985  0.57531550    -0.15400
C2681       C  0.83546888  0.75899215  0.69284802     0.14700
C2682       C  0.86513974  0.77724625  0.68176506     0.01700
C2683       C  0.88719331  0.76952812  0.68964039     0.16600
C2684       C  0.87963211  0.74400461  0.70790701     0.26000
C2685       C  0.84990560  0.72557125  0.71825917    -0.40300
C2686       C  0.82797880  0.73342735  0.71103924     0.33100
C2687       C  0.87300325  0.80416875  0.66199945     0.01700
F2688       F  0.91594143  0.78631758  0.67908209    -0.12600
F2689       F  0.79934220  0.71641612  0.72179664    -0.13100
C2690       C  0.89755079  0.83247713  0.67011913     0.16600
C2691       C  0.90530949  0.85759546  0.65103961     0.26000
C2692       C  0.88831082  0.85498700  0.62392382    -0.40200
C2693       C  0.86357463  0.82694002  0.61600422     0.33000
C2694       C  0.85611266  0.80169720  0.63469282     0.14700
F2695       F  0.91379046  0.83590477  0.69676189    -0.12600
F2696       F  0.84717386  0.82387038  0.58959327    -0.13100
F2697       F  0.92926343  0.88456834  0.65915287    -0.15400
F2698       F  0.83291845  0.77464086  0.62553511    -0.13900
F2699       F  0.81381663  0.76617579  0.68646891    -0.14000
F2700       F  0.90142803  0.73741362  0.71571291    -0.15400
C2701       C  0.88192440  0.82703442  0.83321620     0.14700
C2702       C  0.86844926  0.79854351  0.84750575     0.01700
C2703       C  0.86276017  0.79594850  0.88007102     0.16600
C2704       C  0.87074039  0.82160442  0.89811686     0.26000
C2705       C  0.88399570  0.85006264  0.88370402    -0.40300
C2706       C  0.88962068  0.85258933  0.85117046     0.33100
C2707       C  0.86125819  0.77180720  0.82837125     0.01700
F2708       F  0.85019808  0.76869128  0.89444812    -0.12600
F2709       F  0.90333269  0.87995008  0.83697698    -0.13100
C2710       C  0.88459350  0.76952937  0.81378380     0.16600
C2711       C  0.87795487  0.74512172  0.79436256     0.26000
C2712       C  0.84792681  0.72260926  0.78929981    -0.40200
C2713       C  0.82456037  0.72447217  0.80433415     0.33000
C2714       C  0.83117682  0.74899911  0.82372835     0.14700
F2715       F  0.91385649  0.79087552  0.81863364    -0.12600
F2716       F  0.79537118  0.70282103  0.79974889    -0.13100
F2717       F  0.90088073  0.74331909  0.78075516    -0.15400
F2718       F  0.80826715  0.75090308  0.83736397    -0.13900
F2719       F  0.88765131  0.83004578  0.80180169    -0.14000
F2720       F  0.86556937  0.81874787  0.92964277    -0.15400
C2721       C  0.95434137  0.62848843  0.83109019     0.14700
C2722       C  0.93567818  0.63760952  0.84550637     0.01700
C2723       C  0.93309803  0.63662952  0.87845906     0.16600
C2724       C  0.94882940  0.62634990  0.89685656     0.26000
C2725       C  0.96727451  0.61684151  0.88247294    -0.40300
C2726       C  0.96979456  0.61785337  0.84941939     0.33100
C2727       C  0.91556744  0.64387832  0.82607597     0.01700
F2728       F  0.91490992  0.64517516  0.89268399    -0.12600
F2729       F  0.98649461  0.60768188  0.83487821    -0.13100
C2730       C  0.88512028  0.62175988  0.82363269     0.16600
C2731       C  0.86566032  0.62634482  0.80441295     0.26000
C2732       C  0.87619770  0.65331612  0.78754120    -0.40200
C2733       C  0.90691390  0.67532517  0.78947334     0.33000
C2734       C  0.92656218  0.67061768  0.80867965     0.14700
F2735       F  0.87459899  0.59501420  0.83872425    -0.12600
F2736       F  0.91790356  0.70101325  0.77234737    -0.13100
F2737       F  0.83758107  0.60292054  0.79919648    -0.15400
F2738       F  0.95620144  0.69195091  0.81024590    -0.13900
F2739       F  0.95648077  0.62863591  0.79919749    -0.14000
F2740       F  0.94621089  0.62580307  0.92871494    -0.15400
C2741       C  0.90525447  0.66026968  0.66734030     0.14700
C2742       C  0.91234458  0.63821805  0.67685956     0.01700
C2743       C  0.90020697  0.62286870  0.70535442     0.16600
C2744       C  0.87985616  0.62773198  0.72231262     0.26000
C2745       C  0.87502534  0.65166948  0.71468087    -0.40300
C2746       C  0.88800016  0.66782444  0.68666943     0.33100
C2747       C  0.93068978  0.62988981  0.65648691     0.01700
F2748       F  0.90756889  0.60265142  0.71682467    -0.12600
F2749       F  0.88372263  0.69065490  0.67731891    -0.13100
C2750       C  0.95673718  0.65197331  0.64095895     0.16600
C2751       C  0.97271810  0.64371026  0.62057070     0.26000
C2752       C  0.96524121  0.61343133  0.61811250    -0.40200
C2753       C  0.93984939  0.59151703  0.63456266     0.33000
C2754       C  0.92198726  0.59946332  0.65205816     0.14700
F2755       F  0.96710151  0.68164760  0.64571950    -0.12600
F2756       F  0.93214404  0.56212672  0.63382248    -0.13100
F2757       F  0.49516459  0.66535923  0.60300946    -0.15400
F2758       F  0.89575015  0.57707567  0.66408068    -0.13900
F2759       F  0.91412073  0.67397608  0.63883857    -0.14000
F2760       F  0.86319429  0.60726388  0.74451905    -0.15400
C2761       C  0.69465795  0.57598720  0.87200539     0.14700
C2762       C  0.69324764  0.57072014  0.83943967     0.01700
C2763       C  0.66653758  0.54741430  0.82622864     0.16600
C2764       C  0.64166356  0.52947978  0.84547666     0.26000
C2765       C  0.64348600  0.53420006  0.87828175    -0.40300
C2766       C  0.67020742  0.55781839  0.89123681     0.33100
C2767       C  0.72034973  0.58893790  0.81996216     0.01700
F2768       F  0.66484862  0.54156448  0.79488638    -0.12600
F2769       F  0.67295695  0.56283809  0.92280130    -0.13100
C2770       C  0.74753847  0.59019303  0.82808570     0.16600
C2771       C  0.77400759  0.60928175  0.81200144     0.26000
C2772       C  0.77370992  0.62612329  0.78593925    -0.40200
C2773       C  0.74654097  0.62551989  0.77832686     0.33000
C2774       C  0.72004092  0.60693410  0.79509376     0.14700
F2775       F  0.74852683  0.57299023  0.85196511    -0.12600
F2776       F  0.74594446  0.64398866  0.75571838    -0.13100
F2777       F  0.79991458  0.61155017  0.82268567    -0.15400
F2778       F  0.69437715  0.60731532  0.78780510    -0.13900
F2779       F  0.71995898  0.59875029  0.88527958    -0.14000
F2780       F  0.61587568  0.50756278  0.83212163    -0.15400
C2781       C  0.73606733  0.57581469  0.69854438     0.14700
C2782       C  0.72723005  0.58869877  0.67453264     0.01700
C2783       C  0.74366199  0.61983830  0.66960233     0.16600
C2784       C  0.76839034  0.63801670  0.68878698     0.26000
C2785       C  0.77687607  0.62536152  0.71346310    -0.40300
C2786       C  0.76090100  0.59398186  0.71773403     0.33100
C2787       C  0.70032858  0.56984376  0.65513045     0.01700
F2788       F  0.73561056  0.63261970  0.64623113    -0.12600
F2789       F  0.76951491  0.58090785  0.74024026    -0.13100
C2790       C  0.67408663  0.57161837  0.65914407     0.16600
C2791       C  0.64854123  0.55401449  0.64076792     0.26000
C2792       C  0.64899379  0.53466350  0.61777920    -0.40200
C2793       C  0.67548009  0.53325062  0.61341490     0.33000
C2794       C  0.70089341  0.55049689  0.63226817     0.14700
F2795       F  0.67319090  0.59026954  0.68108925    -0.12600
F2796       F  0.67696556  0.51581629  0.59038605    -0.13100
F2797       F  0.62315096  0.55554694  0.64564167    -0.15400
F2798       F  0.72629309  0.54890833  0.62775914    -0.13900
F2799       F  0.72024145  0.54572046  0.70373886    -0.14000
F2800       F  0.78350188  0.66809391  0.68372035    -0.15400
loop_ 
_geom_bond_atom_site_label_1 
_geom_bond_atom_site_label_2 
_geom_bond_distance 
_geom_bond_site_symmetry_2 
_ccdc_geom_bond_type 
C1            H2   1.111       .  S
C1            C7   1.543       .  S
C1            C6   1.531       .  S
C1            C5   1.540       .  S
C3            H4   1.108       .  S
C3            C9   1.538       .  S
C3            C8   1.537       .  S
C3           C10   1.539       .  S
C5            C8   1.378       .  D
C5          C322   1.495       .  S
C6            C9   1.368       .  D
C6          C262   1.478       .  S
C7           C10   1.380       .  D
C7          C282   1.483       .  S
C8          C335   1.487       .  S
C9          C235   1.479       .  S
C10         C295   1.500       .  S
O11         Ni19   1.832       .  S
O11          C21   1.242       .  A
O12        Ni369   1.833   1_554  S
O12          C22   1.243       .  A
O13         Ni19   1.912       .  S
O13          C23   1.270       .  A
O14        Ni369   1.913   1_554  S
O14          C24   1.271       .  A
O15        Ni370   1.963   1_554  S
O15          C24   1.290       .  A
O16         Ni20   1.961       .  S
O16          C23   1.290       .  A
O17        Ni370   1.985   1_554  S
O17          C22   1.295       .  A
O18         Ni20   1.984       .  S
O18          C21   1.295       .  A
Ni19        O362   1.833       .  S
Ni19        O364   1.913       .  S
Ni19        Ni20   2.299       .  S
Ni20        O365   1.963       .  S
Ni20        O367   1.985       .  S
C21          C89   1.498       .  S
C22          C57   1.500       .  S
C23          C72   1.512       .  S
C24          C96   1.515       .  S
O25         Ni33   1.844   1_545  S
O25          C35   1.245       .  A
O26       Ni1083   1.843   1_554  S
O26          C36   1.245       .  A
O27        Ni733   1.914       .  S
O27          C37   1.271       .  A
O28        Ni383   1.911   1_544  S
O28          C38   1.269       .  A
O29        Ni384   1.973   1_544  S
O29          C38   1.292       .  A
O30        Ni734   1.973       .  S
O30          C37   1.292       .  A
O31       Ni1084   1.994   1_554  S
O31          C36   1.296       .  A
O32         Ni34   1.992   1_545  S
O32          C35   1.295       .  A
Ni33       O1076   1.844       .  S
Ni33        O727   1.914       .  S
Ni33        O378   1.911   1_565  S
Ni33        Ni34   2.297       .  S
Ni34        O379   1.973   1_565  S
Ni34        O730   1.973       .  S
Ni34       O1081   1.994       .  S
C35          C73   1.509       .  S
C36          C64   1.509       .  S
C37          C81   1.520       .  S
C38          C56   1.521       .  S
O39         Ni47   1.839   1_455  S
O39          C49   1.244       .  A
O40       Ni1797   1.841       .  S
O40          C50   1.244       .  A
O41       Ni1447   1.909       .  S
O41          C51   1.269       .  A
O42        Ni397   1.909   1_455  S
O42          C52   1.269       .  A
O43       Ni1798   1.972   1_455  S
O43          C52   1.292       .  A
O44         Ni48   1.970       .  S
O44          C51   1.292       .  A
O45        Ni398   1.986       .  S
O45          C50   1.295       .  A
O46       Ni1448   1.983   1_455  S
O46          C49   1.294       .  A
Ni47       O1790   1.841   1_554  S
Ni47       O1441   1.909       .  S
Ni47        O392   1.909   1_654  S
Ni47      Ni1448   2.299       .  S
Ni48       O1793   1.972   1_554  S
Ni48        O395   1.986   1_554  S
Ni48       O1446   1.982       .  S
Ni48      Ni1447   2.299       .  S
C49          C97   1.500       .  S
C50          C80   1.503       .  S
C51          C65   1.515       .  S
C52          C88   1.519       .  S
C53         C215   1.488       .  S
C53          C58   1.402       .  A
C53        C1454   1.421   1_455  A
C54         C302   1.494       .  S
C54          C55   1.410       .  A
C54        C1453   1.421       .  A
C55          C56   1.399       .  A
C55          H60   1.082       .  S
C56        C1457   1.458       .  A
C57          C58   1.397       .  A
C57        C1456   1.458   1_455  A
C58          H59   1.082       .  S
C61         C242   1.482       .  S
C61          C62   1.410       .  A
C61          C66   1.400       .  A
C62         C195   1.480       .  S
C62          C63   1.403       .  A
C63          C64   1.404       .  A
C63          H68   1.083       .  S
C64          C65   1.464       .  A
C65          C66   1.402       .  A
C66          H67   1.084       .  S
C69         C275   1.481       .  S
C69          C74   1.406       .  A
C69        C1470   1.414       .  A
C70         C182   1.488       .  S
C70          C71   1.399       .  A
C70        C1469   1.414   1_455  A
C71          C72   1.401       .  A
C71          H76   1.085       .  S
C72        C1473   1.462   1_455  A
C73          C74   1.403       .  A
C73        C1472   1.462       .  A
C74          H75   1.084       .  S
C77         C162   1.484       .  S
C77          C78   1.412       .  A
C77          C82   1.404       .  A
C78         C255   1.482       .  S
C78          C79   1.400       .  A
C79          C80   1.402       .  A
C79          H84   1.083       .  S
C80          C81   1.463       .  A
C81          C82   1.404       .  A
C82          H83   1.083       .  S
C85         C315   1.488       .  S
C85          C90   1.403       .  A
C85         C786   1.423   1_545  A
C86         C142   1.495       .  S
C86          C87   1.409       .  A
C86         C785   1.423       .  A
C87          C88   1.397       .  A
C87          H92   1.083       .  S
C88         C789   1.457       .  A
C89          C90   1.396       .  A
C89         C788   1.457   1_545  A
C90          H91   1.085       .  S
C93         C115   1.482       .  S
C93          C98   1.401       .  A
C93         C794   1.413       .  A
C94         C342   1.482       .  S
C94          C95   1.401       .  A
C94         C793   1.413   1_545  A
C95          C96   1.399       .  A
C95         H100   1.085       .  S
C96         C797   1.460   1_545  A
C97          C98   1.401       .  A
C97         C796   1.460       .  A
C98          H99   1.084       .  S
C101        H102   1.109       .  S
C101        C107   1.539       .  S
C101        C106   1.539       .  S
C101        C105   1.539       .  S
C103        H104   1.110       .  S
C103        C109   1.544       .  S
C103        C108   1.539       .  S
C103        C110   1.530       .  S
C105        C108   1.379       .  D
C105        C175   1.485       .  S
C106        C109   1.382       .  D
C106        C135   1.501       .  S
C107        C110   1.366       .  D
C107        C155   1.480       .  S
C108        C222   1.497       .  S
C109        C122   1.484       .  S
C110        C202   1.477       .  S
C111        C112   1.403       .  A
C111        C116   1.398       .  A
C111        F129   1.358       .  S
C112        C117   1.473       .  S
C112        C113   1.403       .  A
C113        C114   1.398       .  A
C113        F118   1.358       .  S
C114        C115   1.406       .  A
C114        F130   1.358       .  S
C115        C116   1.407       .  A
C116        F119   1.357       .  S
C117        C120   1.401       .  A
C117        C124   1.404       .  A
C120        C121   1.395       .  A
C120        F125   1.358       .  S
C121        C122   1.406       .  A
C121        F127   1.355       .  S
C122        C123   1.405       .  A
C123        C124   1.401       .  A
C123        F126   1.357       .  S
C124        F128   1.358       .  S
C131        C132   1.408       .  A
C131        C136   1.401       .  A
C131        F149   1.357       .  S
C132        C137   1.493       .  S
C132        C133   1.407       .  A
C133        C134   1.392       .  A
C133        F138   1.358       .  S
C134        C135   1.406       .  A
C134        F150   1.351       .  S
C135        C136   1.412       .  A
C136        F139   1.353       .  S
C137        C140   1.410       .  A
C137        C144   1.408       .  A
C140        C141   1.401       .  A
C140        F145   1.357       .  S
C141        C142   1.410       .  A
C141        F847   1.356       .  S
C142        C143   1.409       .  A
C143        C144   1.391       .  A
C143        F146   1.358       .  S
C144        F148   1.358       .  S
F147        C841   1.356       .  S
C151        C152   1.409       .  A
C151        C156   1.401       .  A
C151        F169   1.358       .  S
C152        C157   1.487       .  S
C152        C153   1.408       .  A
C153        C154   1.397       .  A
C153        F158   1.358       .  S
C154        C155   1.402       .  A
C154        F170   1.356       .  S
C155        C156   1.403       .  A
C156        F159   1.358       .  S
C157        C160   1.409       .  A
C157        C164   1.408       .  A
C160        C161   1.400       .  A
C160        F165   1.358       .  S
C161        C162   1.405       .  A
C161        F167   1.358       .  S
C162        C163   1.404       .  A
C163        C164   1.399       .  A
C163        F166   1.357       .  S
C164        F168   1.358       .  S
C171        C172   1.405       .  A
C171        C176   1.401       .  A
C171        F189   1.358       .  S
C172        C177   1.479       .  S
C172        C173   1.404       .  A
C173        C174   1.397       .  A
C173        F178   1.358       .  S
C174        C175   1.404       .  A
C174        F190   1.357       .  S
C175        C176   1.408       .  A
C176        F179   1.358       .  S
C177        C180   1.404       .  A
C177        C184   1.404       .  A
C180        C181   1.398       .  A
C180        F185   1.358       .  S
C181        C182   1.407       .  A
C181        F187   1.358       .  S
C182        C183   1.408       .  A
C183        C184   1.400       .  A
C183        F186   1.357       .  S
C184        F188   1.358       .  S
C191        C192   1.407       .  A
C191        C196   1.399       .  A
C191        F209   1.358       .  S
C192        C197   1.481       .  S
C192        C193   1.406       .  A
C193        C194   1.399       .  A
C193        F198   1.358       .  S
C194        C195   1.404       .  A
C194        F210   1.358       .  S
C195        C196   1.404       .  A
C196        F199   1.358       .  S
C197        C200   1.406       .  A
C197        C204   1.407       .  A
C200        C201   1.396       .  A
C200        F205   1.358       .  S
C201        C202   1.402       .  A
C201        F207   1.356       .  S
C202        C203   1.403       .  A
C203        C204   1.400       .  A
C203        F206   1.358       .  S
C204        F208   1.358       .  S
C211        C212   1.407       .  A
C211        C216   1.402       .  A
C211        F229   1.358       .  S
C212        C217   1.482       .  S
C212        C213   1.405       .  A
C213        C214   1.393       .  A
C213        F218   1.358       .  S
C214        C215   1.408       .  A
C214        F230   1.358       .  S
C215        C216   1.408       .  A
C216       F1619   1.357       .  S
C217        C220   1.405       .  A
C217        C224   1.403       .  A
F219       C1616   1.357       .  S
C220        C221   1.401       .  A
C220        F225   1.358       .  S
C221        C222   1.412       .  A
C221        F227   1.357       .  S
C222        C223   1.407       .  A
C223        C224   1.393       .  A
C223        F226   1.350       .  S
C224        F228   1.359       .  S
C231        C232   1.409       .  A
C231        C236   1.400       .  A
C231        F249   1.358       .  S
C232        C237   1.489       .  S
C232        C233   1.409       .  A
C233        C234   1.399       .  A
C233        F238   1.358       .  S
C234        C235   1.402       .  A
C234        F250   1.357       .  S
C235        C236   1.402       .  A
C236        F239   1.357       .  S
C237        C240   1.409       .  A
C237        C244   1.409       .  A
C240        C241   1.400       .  A
C240        F245   1.358       .  S
C241        C242   1.404       .  A
C241        F247   1.358       .  S
C242        C243   1.403       .  A
C243        C244   1.399       .  A
C243        F246   1.358       .  S
C244        F248   1.358       .  S
C251        C252   1.405       .  A
C251        C256   1.397       .  A
C251        F269   1.358       .  S
C252        C257   1.479       .  S
C252        C253   1.406       .  A
C253        C254   1.401       .  A
C253        F258   1.358       .  S
C254        C255   1.406       .  A
C254        F270   1.358       .  S
C255        C256   1.404       .  A
C256        F259   1.357       .  S
C257        C260   1.405       .  A
C257        C264   1.406       .  A
C260        C261   1.397       .  A
C260        F265   1.358       .  S
C261        C262   1.402       .  A
C261        F267   1.355       .  S
C262        C263   1.404       .  A
C263        C264   1.401       .  A
C263        F266   1.358       .  S
C264        F268   1.358       .  S
C271        C272   1.402       .  A
C271        C276   1.397       .  A
C271        F289   1.358       .  S
C272        C277   1.470       .  S
C272        C273   1.403       .  A
C273        C274   1.397       .  A
C273        F278   1.358       .  S
C274        C275   1.406       .  A
C274        F290   1.358       .  S
C275        C276   1.407       .  A
C276        F279   1.358       .  S
C277        C280   1.399       .  A
C277        C284   1.404       .  A
C280        C281   1.391       .  A
C280        F285   1.358       .  S
C281        C282   1.404       .  A
C281        F287   1.353       .  S
C282        C283   1.406       .  A
C283        C284   1.402       .  A
C283        F286   1.357       .  S
C284        F288   1.358       .  S
C291        C292   1.409       .  A
C291        C296   1.400       .  A
C291        F309   1.357       .  S
C292        C297   1.493       .  S
C292        C293   1.407       .  A
C293        C294   1.392       .  A
C293        F298   1.358       .  S
C294        C295   1.407       .  A
C294        F310   1.350       .  S
C295        C296   1.411       .  A
C296        F299   1.355       .  S
C297        C300   1.410       .  A
C297        C304   1.410       .  A
C300        C301   1.400       .  A
C300        F305   1.358       .  S
C301        C302   1.410       .  A
C301       F1707   1.357       .  S
C302        C303   1.408       .  A
C303        C304   1.393       .  A
C303        F306   1.358       .  S
C304        F308   1.358       .  S
F307       C1701   1.357       .  S
C311        C312   1.404       .  A
C311        C316   1.392       .  A
C311        F329   1.358       .  S
C312        C317   1.480       .  S
C312        C313   1.406       .  A
C313        C314   1.403       .  A
C313        F318   1.358       .  S
C314        C315   1.409       .  A
C314        F330   1.357       .  S
C315        C316   1.408       .  A
C316        F319   1.358       .  S
C317        C320   1.402       .  A
C317        C324   1.405       .  A
C320        C321   1.392       .  A
C320        F325   1.359       .  S
C321        C322   1.406       .  A
C321        F327   1.348       .  S
C322        C323   1.411       .  A
C323        C324   1.402       .  A
C323        F326   1.357       .  S
C324        F328   1.357       .  S
C331        C332   1.403       .  A
C331        C336   1.399       .  A
C331        F349   1.358       .  S
C332        C337   1.474       .  S
C332        C333   1.402       .  A
C333        C334   1.396       .  A
C333        F338   1.358       .  S
C334        C335   1.407       .  A
C334        F350   1.356       .  S
C335        C336   1.408       .  A
C336        F339   1.357       .  S
C337        C340   1.403       .  A
C337        C344   1.404       .  A
C340        C341   1.395       .  A
C340        F345   1.358       .  S
C341        C342   1.406       .  A
C341        F347   1.358       .  S
C342        C343   1.407       .  A
C343        C344   1.399       .  A
C343        F346   1.358       .  S
C344        F348   1.358       .  S
C351        H352   1.111       .  S
C351        C357   1.543       .  S
C351        C356   1.531       .  S
C351        C355   1.540       .  S
C353        H354   1.108       .  S
C353        C359   1.538       .  S
C353        C358   1.537       .  S
C353        C360   1.539       .  S
C355        C358   1.379       .  D
C355        C672   1.495       .  S
C356        C359   1.368       .  D
C356        C612   1.478       .  S
C357        C360   1.380       .  D
C357        C632   1.483       .  S
C358        C685   1.487       .  S
C359        C585   1.479       .  S
C360        C645   1.500       .  S
O361       Ni369   1.832       .  S
O361        C371   1.242       .  A
O362        C372   1.243       .  A
O363       Ni369   1.912       .  S
O363        C373   1.270       .  A
O364        C374   1.271       .  A
O365        C374   1.290       .  A
O366       Ni370   1.961       .  S
O366        C373   1.290       .  A
O367        C372   1.295       .  A
O368       Ni370   1.984       .  S
O368        C371   1.295       .  A
Ni369      Ni370   2.299       .  S
C371        C439   1.499       .  S
C372        C407   1.500       .  S
C373        C422   1.512       .  S
C374        C446   1.515       .  S
O375       Ni383   1.844   1_545  S
O375        C385   1.245       .  A
O376       Ni733   1.844       .  S
O376        C386   1.245       .  A
O377      Ni1083   1.914       .  S
O377        C387   1.271       .  A
O378        C388   1.269       .  A
O379        C388   1.292       .  A
O380      Ni1084   1.973       .  S
O380        C387   1.292       .  A
O381       Ni734   1.994       .  S
O381        C386   1.296       .  A
O382       Ni384   1.992   1_545  S
O382        C385   1.295       .  A
Ni383       O726   1.844   1_556  S
Ni383      O1077   1.914       .  S
Ni383      Ni384   2.298       .  S
Ni384      O1080   1.973       .  S
Ni384       O731   1.994   1_556  S
C385        C423   1.509       .  S
C386        C414   1.509       .  S
C387        C431   1.520       .  S
C388        C406   1.521       .  S
O389       Ni397   1.839   1_455  S
O389        C399   1.244       .  A
O390      Ni1447   1.841   1_556  S
O390        C400   1.244       .  A
O391      Ni1797   1.909       .  S
O391        C401   1.269       .  A
O392        C402   1.269       .  A
O393      Ni1448   1.972   1_456  S
O393        C402   1.292       .  A
O394       Ni398   1.970       .  S
O394        C401   1.292       .  A
O395        C400   1.295       .  A
O396      Ni1798   1.982   1_455  S
O396        C399   1.294       .  A
Ni397      O1440   1.841       .  S
Ni397      O1791   1.909       .  S
Ni397     Ni1798   2.299       .  S
Ni398      O1443   1.972       .  S
Ni398      O1796   1.982       .  S
Ni398     Ni1797   2.299       .  S
C399        C447   1.500       .  S
C400        C430   1.503       .  S
C401        C415   1.515       .  S
C402        C438   1.519       .  S
C403        C565   1.488       .  S
C403       C1804   1.421   1_455  A
C403        C408   1.402       .  A
C404        C652   1.494       .  S
C404       C1803   1.421       .  A
C404        C405   1.410       .  A
C405        C406   1.399       .  A
C405        H410   1.082       .  S
C406       C1807   1.458       .  A
C407       C1806   1.458   1_455  A
C407        C408   1.397       .  A
C408        H409   1.082       .  S
C411        C592   1.482       .  S
C411        C412   1.410       .  A
C411        C416   1.400       .  A
C412        C545   1.480       .  S
C412        C413   1.403       .  A
C413        C414   1.404       .  A
C413        H418   1.083       .  S
C414        C415   1.464       .  A
C415        C416   1.402       .  A
C416        H417   1.084       .  S
C419        C625   1.481       .  S
C419       C1820   1.414       .  A
C419        C424   1.406       .  A
C420        C532   1.488       .  S
C420       C1819   1.414   1_455  A
C420        C421   1.399       .  A
C421        C422   1.401       .  A
C421        H426   1.085       .  S
C422       C1823   1.462   1_455  A
C423       C1822   1.462       .  A
C423        C424   1.403       .  A
C424        H425   1.084       .  S
C427        C512   1.484       .  S
C427        C428   1.412       .  A
C427        C432   1.405       .  A
C428        C605   1.482       .  S
C428        C429   1.400       .  A
C429        C430   1.402       .  A
C429        H434   1.083       .  S
C430        C431   1.463       .  A
C431        C432   1.404       .  A
C432        H433   1.083       .  S
C435        C665   1.488       .  S
C435       C1136   1.423   1_545  A
C435        C440   1.403       .  A
C436        C492   1.495       .  S
C436       C1135   1.423       .  A
C436        C437   1.409       .  A
C437        C438   1.397       .  A
C437        H442   1.083       .  S
C438       C1139   1.457       .  A
C439       C1138   1.457   1_545  A
C439        C440   1.396       .  A
C440        H441   1.085       .  S
C443        C465   1.482       .  S
C443       C1144   1.413       .  A
C443        C448   1.401       .  A
C444        C692   1.482       .  S
C444       C1143   1.413   1_545  A
C444        C445   1.401       .  A
C445        C446   1.399       .  A
C445        H450   1.085       .  S
C446       C1147   1.460   1_545  A
C447       C1146   1.460       .  A
C447        C448   1.401       .  A
C448        H449   1.084       .  S
C451        H452   1.109       .  S
C451        C457   1.538       .  S
C451        C456   1.539       .  S
C451        C455   1.539       .  S
C453        H454   1.110       .  S
C453        C459   1.544       .  S
C453        C458   1.539       .  S
C453        C460   1.530       .  S
C455        C458   1.379       .  D
C455        C525   1.485       .  S
C456        C459   1.382       .  D
C456        C485   1.501       .  S
C457        C460   1.365       .  D
C457        C505   1.480       .  S
C458        C572   1.497       .  S
C459        C472   1.484       .  S
C460        C552   1.477       .  S
C461        C462   1.403       .  A
C461        C466   1.398       .  A
C461        F479   1.358       .  S
C462        C467   1.473       .  S
C462        C463   1.403       .  A
C463        C464   1.398       .  A
C463        F468   1.358       .  S
C464        C465   1.406       .  A
C464        F480   1.358       .  S
C465        C466   1.407       .  A
C466        F469   1.357       .  S
C467        C470   1.401       .  A
C467        C474   1.404       .  A
C470        C471   1.395       .  A
C470        F475   1.358       .  S
C471        C472   1.406       .  A
C471        F477   1.355       .  S
C472        C473   1.405       .  A
C473        C474   1.401       .  A
C473        F476   1.357       .  S
C474        F478   1.358       .  S
C481        C482   1.408       .  A
C481        C486   1.401       .  A
C481        F499   1.357       .  S
C482        C487   1.493       .  S
C482        C483   1.407       .  A
C483        C484   1.392       .  A
C483        F488   1.358       .  S
C484        C485   1.406       .  A
C484        F500   1.351       .  S
C485        C486   1.412       .  A
C486        F489   1.353       .  S
C487        C490   1.410       .  A
C487        C494   1.408       .  A
C490        C491   1.401       .  A
C490        F495   1.357       .  S
C491        C492   1.410       .  A
C491       F1197   1.356       .  S
C492        C493   1.409       .  A
C493        C494   1.391       .  A
C493        F496   1.358       .  S
C494        F498   1.358       .  S
F497       C1191   1.356       .  S
C501        C502   1.409       .  A
C501        C506   1.401       .  A
C501        F519   1.358       .  S
C502        C507   1.487       .  S
C502        C503   1.408       .  A
C503        C504   1.397       .  A
C503        F508   1.358       .  S
C504        C505   1.402       .  A
C504        F520   1.356       .  S
C505        C506   1.403       .  A
C506        F509   1.358       .  S
C507        C510   1.409       .  A
C507        C514   1.408       .  A
C510        C511   1.400       .  A
C510        F515   1.358       .  S
C511        C512   1.405       .  A
C511        F517   1.358       .  S
C512        C513   1.404       .  A
C513        C514   1.399       .  A
C513        F516   1.357       .  S
C514        F518   1.358       .  S
C521        C522   1.405       .  A
C521        C526   1.401       .  A
C521        F539   1.358       .  S
C522        C527   1.479       .  S
C522        C523   1.404       .  A
C523        C524   1.397       .  A
C523        F528   1.358       .  S
C524        C525   1.404       .  A
C524        F540   1.357       .  S
C525        C526   1.407       .  A
C526        F529   1.358       .  S
C527        C530   1.404       .  A
C527        C534   1.404       .  A
C530        C531   1.398       .  A
C530        F535   1.358       .  S
C531        C532   1.407       .  A
C531        F537   1.358       .  S
C532        C533   1.408       .  A
C533        C534   1.400       .  A
C533        F536   1.357       .  S
C534        F538   1.358       .  S
C541        C542   1.407       .  A
C541        C546   1.399       .  A
C541        F559   1.358       .  S
C542        C547   1.481       .  S
C542        C543   1.406       .  A
C543        C544   1.399       .  A
C543        F548   1.358       .  S
C544        C545   1.404       .  A
C544        F560   1.358       .  S
C545        C546   1.404       .  A
C546        F549   1.358       .  S
C547        C550   1.406       .  A
C547        C554   1.407       .  A
C550        C551   1.396       .  A
C550        F555   1.358       .  S
C551        C552   1.402       .  A
C551        F557   1.356       .  S
C552        C553   1.403       .  A
C553        C554   1.400       .  A
C553        F556   1.358       .  S
C554        F558   1.358       .  S
C561        C562   1.407       .  A
C561        C566   1.402       .  A
C561        F579   1.358       .  S
C562        C567   1.482       .  S
C562        C563   1.405       .  A
C563        C564   1.393       .  A
C563        F568   1.358       .  S
C564        C565   1.408       .  A
C564        F580   1.358       .  S
C565        C566   1.408       .  A
C566       F1969   1.357       .  S
C567        C570   1.405       .  A
C567        C574   1.403       .  A
F569       C1966   1.357       .  S
C570        C571   1.401       .  A
C570        F575   1.358       .  S
C571        C572   1.412       .  A
C571        F577   1.357       .  S
C572        C573   1.407       .  A
C573        C574   1.393       .  A
C573        F576   1.350       .  S
C574        F578   1.359       .  S
C581        C582   1.409       .  A
C581        C586   1.400       .  A
C581        F599   1.358       .  S
C582        C587   1.489       .  S
C582        C583   1.409       .  A
C583        C584   1.399       .  A
C583        F588   1.358       .  S
C584        C585   1.402       .  A
C584        F600   1.357       .  S
C585        C586   1.402       .  A
C586        F589   1.357       .  S
C587        C590   1.409       .  A
C587        C594   1.409       .  A
C590        C591   1.400       .  A
C590        F595   1.358       .  S
C591        C592   1.404       .  A
C591        F597   1.358       .  S
C592        C593   1.403       .  A
C593        C594   1.399       .  A
C593        F596   1.358       .  S
C594        F598   1.358       .  S
C601        C602   1.405       .  A
C601        C606   1.397       .  A
C601        F619   1.358       .  S
C602        C607   1.479       .  S
C602        C603   1.406       .  A
C603        C604   1.401       .  A
C603        F608   1.358       .  S
C604        C605   1.406       .  A
C604        F620   1.358       .  S
C605        C606   1.404       .  A
C606        F609   1.357       .  S
C607        C610   1.405       .  A
C607        C614   1.406       .  A
C610        C611   1.397       .  A
C610        F615   1.358       .  S
C611        C612   1.402       .  A
C611        F617   1.355       .  S
C612        C613   1.404       .  A
C613        C614   1.401       .  A
C613        F616   1.358       .  S
C614        F618   1.358       .  S
C621        C622   1.402       .  A
C621        C626   1.397       .  A
C621        F639   1.358       .  S
C622        C627   1.470       .  S
C622        C623   1.403       .  A
C623        C624   1.397       .  A
C623        F628   1.358       .  S
C624        C625   1.406       .  A
C624        F640   1.358       .  S
C625        C626   1.407       .  A
C626        F629   1.358       .  S
C627        C630   1.399       .  A
C627        C634   1.404       .  A
C630        C631   1.391       .  A
C630        F635   1.358       .  S
C631        C632   1.404       .  A
C631        F637   1.353       .  S
C632        C633   1.406       .  A
C633        C634   1.402       .  A
C633        F636   1.357       .  S
C634        F638   1.358       .  S
C641        C642   1.409       .  A
C641        C646   1.400       .  A
C641        F659   1.357       .  S
C642        C647   1.493       .  S
C642        C643   1.407       .  A
C643        C644   1.392       .  A
C643        F648   1.358       .  S
C644        C645   1.407       .  A
C644        F660   1.350       .  S
C645        C646   1.411       .  A
C646        F649   1.355       .  S
C647        C650   1.410       .  A
C647        C654   1.410       .  A
C650        C651   1.400       .  A
C650        F655   1.358       .  S
C651        C652   1.410       .  A
C651       F2057   1.357       .  S
C652        C653   1.408       .  A
C653        C654   1.393       .  A
C653        F656   1.358       .  S
C654        F658   1.358       .  S
F657       C2051   1.357       .  S
C661        C662   1.404       .  A
C661        C666   1.392       .  A
C661        F679   1.358       .  S
C662        C667   1.480       .  S
C662        C663   1.406       .  A
C663        C664   1.403       .  A
C663        F668   1.358       .  S
C664        C665   1.409       .  A
C664        F680   1.357       .  S
C665        C666   1.408       .  A
C666        F669   1.358       .  S
C667        C670   1.401       .  A
C667        C674   1.405       .  A
C670        C671   1.392       .  A
C670        F675   1.359       .  S
C671        C672   1.406       .  A
C671        F677   1.348       .  S
C672        C673   1.411       .  A
C673        C674   1.402       .  A
C673        F676   1.357       .  S
C674        F678   1.357       .  S
C681        C682   1.403       .  A
C681        C686   1.399       .  A
C681        F699   1.358       .  S
C682        C687   1.474       .  S
C682        C683   1.402       .  A
C683        C684   1.396       .  A
C683        F688   1.358       .  S
C684        C685   1.407       .  A
C684        F700   1.356       .  S
C685        C686   1.408       .  A
C686        F689   1.358       .  S
C687        C690   1.403       .  A
C687        C694   1.404       .  A
C690        C691   1.396       .  A
C690        F695   1.358       .  S
C691        C692   1.406       .  A
C691        F697   1.358       .  S
C692        C693   1.407       .  A
C693        C694   1.400       .  A
C693        F696   1.358       .  S
C694        F698   1.358       .  S
C701        H702   1.111       .  S
C701        C707   1.543       .  S
C701        C706   1.531       .  S
C701        C705   1.540       .  S
C703        H704   1.108       .  S
C703        C709   1.538       .  S
C703        C708   1.537       .  S
C703        C710   1.539       .  S
C705        C708   1.379       .  D
C705       C1022   1.495       .  S
C706        C709   1.368       .  D
C706        C962   1.478       .  S
C707        C710   1.380       .  D
C707        C982   1.483       .  S
C708       C1035   1.487       .  S
C709        C935   1.479       .  S
C710        C995   1.501       .  S
O711       Ni719   1.832       .  S
O711        C721   1.242       .  A
O712      Ni1069   1.833   1_554  S
O712        C722   1.243       .  A
O713       Ni719   1.912       .  S
O713        C723   1.270       .  A
O714      Ni1069   1.914   1_554  S
O714        C724   1.271       .  A
O715      Ni1070   1.963   1_554  S
O715        C724   1.290       .  A
O716       Ni720   1.961       .  S
O716        C723   1.290       .  A
O717      Ni1070   1.985   1_554  S
O717        C722   1.295       .  A
O718       Ni720   1.984       .  S
O718        C721   1.295       .  A
Ni719      O1062   1.833       .  S
Ni719      O1064   1.913       .  S
Ni719      Ni720   2.299       .  S
Ni720      O1065   1.963       .  S
Ni720      O1067   1.985       .  S
C721        C789   1.498       .  S
C722        C757   1.500       .  S
C723        C772   1.512       .  S
C724        C796   1.515       .  S
O725       Ni733   1.844       .  S
O725        C735   1.245       .  A
O726        C736   1.245       .  A
O727        C737   1.271       .  A
O728      Ni1083   1.911   1_554  S
O728        C738   1.269       .  A
O729      Ni1084   1.973   1_554  S
O729        C738   1.292       .  A
O730        C737   1.292       .  A
O731        C736   1.296       .  A
O732       Ni734   1.992       .  S
O732        C735   1.295       .  A
Ni733      O1078   1.911       .  S
Ni733      Ni734   2.298       .  S
Ni734      O1079   1.973       .  S
C735        C773   1.510       .  S
C736        C764   1.509       .  S
C737        C781   1.520       .  S
C738        C756   1.521       .  S
O739       Ni747   1.839   1_455  S
O739        C749   1.244       .  A
O740      Ni2497   1.841       .  S
O740        C750   1.244       .  A
O741      Ni2147   1.909       .  S
O741        C751   1.269       .  A
O742      Ni1097   1.909   1_455  S
O742        C752   1.269       .  A
O743      Ni2498   1.972   1_455  S
O743        C752   1.292       .  A
O744       Ni748   1.970       .  S
O744        C751   1.292       .  A
O745      Ni1098   1.986       .  S
O745        C750   1.295       .  A
O746      Ni2148   1.982   1_455  S
O746        C749   1.294       .  A
Ni747      O2490   1.841   1_554  S
Ni747      O2141   1.909       .  S
Ni747      O1092   1.909   1_654  S
Ni747     Ni2148   2.299       .  S
Ni748      O2493   1.972   1_554  S
Ni748      O1095   1.986   1_554  S
Ni748      O2146   1.983       .  S
Ni748     Ni2147   2.299       .  S
C749        C797   1.500       .  S
C750        C780   1.503       .  S
C751        C765   1.515       .  S
C752        C788   1.519       .  S
C753        C915   1.488       .  S
C753       C2154   1.421   1_455  A
C753        C758   1.402       .  A
C754       C1002   1.494       .  S
C754       C2153   1.421       .  A
C754        C755   1.410       .  A
C755        C756   1.400       .  A
C755        H760   1.082       .  S
C756       C2157   1.458       .  A
C757       C2156   1.458   1_455  A
C757        C758   1.397       .  A
C758        H759   1.082       .  S
C761        C942   1.482       .  S
C761        C762   1.410       .  A
C761        C766   1.400       .  A
C762        C895   1.480       .  S
C762        C763   1.403       .  A
C763        C764   1.404       .  A
C763        H768   1.083       .  S
C764        C765   1.464       .  A
C765        C766   1.402       .  A
C766        H767   1.084       .  S
C769        C975   1.481       .  S
C769       C2170   1.414       .  A
C769        C774   1.406       .  A
C770        C882   1.488       .  S
C770       C2169   1.414   1_455  A
C770        C771   1.399       .  A
C771        C772   1.401       .  A
C771        H776   1.085       .  S
C772       C2173   1.462   1_455  A
C773       C2172   1.462       .  A
C773        C774   1.403       .  A
C774        H775   1.084       .  S
C777        C862   1.484       .  S
C777        C778   1.412       .  A
C777        C782   1.405       .  A
C778        C955   1.482       .  S
C778        C779   1.400       .  A
C779        C780   1.402       .  A
C779        H784   1.083       .  S
C780        C781   1.463       .  A
C781        C782   1.404       .  A
C782        H783   1.083       .  S
C785       C1015   1.488       .  S
C785        C790   1.403       .  A
C786        C842   1.495       .  S
C786        C787   1.409       .  A
C787        C788   1.397       .  A
C787        H792   1.083       .  S
C789        C790   1.396       .  A
C790        H791   1.085       .  S
C793        C815   1.482       .  S
C793        C798   1.401       .  A
C794       C1042   1.482       .  S
C794        C795   1.401       .  A
C795        C796   1.399       .  A
C795        H800   1.085       .  S
C797        C798   1.401       .  A
C798        H799   1.084       .  S
C801        H802   1.109       .  S
C801        C807   1.538       .  S
C801        C806   1.539       .  S
C801        C805   1.539       .  S
C803        H804   1.110       .  S
C803        C809   1.544       .  S
C803        C808   1.540       .  S
C803        C810   1.530       .  S
C805        C808   1.379       .  D
C805        C875   1.485       .  S
C806        C809   1.382       .  D
C806        C835   1.501       .  S
C807        C810   1.365       .  D
C807        C855   1.480       .  S
C808        C922   1.497       .  S
C809        C822   1.484       .  S
C810        C902   1.477       .  S
C811        C812   1.403       .  A
C811        C816   1.398       .  A
C811        F829   1.358       .  S
C812        C817   1.473       .  S
C812        C813   1.403       .  A
C813        C814   1.398       .  A
C813        F818   1.358       .  S
C814        C815   1.406       .  A
C814        F830   1.358       .  S
C815        C816   1.407       .  A
C816        F819   1.357       .  S
C817        C820   1.401       .  A
C817        C824   1.404       .  A
C820        C821   1.395       .  A
C820        F825   1.358       .  S
C821        C822   1.406       .  A
C821        F827   1.355       .  S
C822        C823   1.405       .  A
C823        C824   1.401       .  A
C823        F826   1.357       .  S
C824        F828   1.358       .  S
C831        C832   1.408       .  A
C831        C836   1.401       .  A
C831        F849   1.357       .  S
C832        C837   1.493       .  S
C832        C833   1.407       .  A
C833        C834   1.392       .  A
C833        F838   1.358       .  S
C834        C835   1.406       .  A
C834        F850   1.351       .  S
C835        C836   1.412       .  A
C836        F839   1.353       .  S
C837        C840   1.410       .  A
C837        C844   1.408       .  A
C840        C841   1.401       .  A
C840        F845   1.357       .  S
C841        C842   1.410       .  A
C842        C843   1.409       .  A
C843        C844   1.391       .  A
C843        F846   1.358       .  S
C844        F848   1.358       .  S
C851        C852   1.409       .  A
C851        C856   1.401       .  A
C851        F869   1.358       .  S
C852        C857   1.487       .  S
C852        C853   1.408       .  A
C853        C854   1.397       .  A
C853        F858   1.358       .  S
C854        C855   1.402       .  A
C854        F870   1.356       .  S
C855        C856   1.403       .  A
C856        F859   1.358       .  S
C857        C860   1.408       .  A
C857        C864   1.408       .  A
C860        C861   1.400       .  A
C860        F865   1.358       .  S
C861        C862   1.405       .  A
C861        F867   1.358       .  S
C862        C863   1.404       .  A
C863        C864   1.399       .  A
C863        F866   1.357       .  S
C864        F868   1.358       .  S
C871        C872   1.405       .  A
C871        C876   1.401       .  A
C871        F889   1.358       .  S
C872        C877   1.479       .  S
C872        C873   1.404       .  A
C873        C874   1.397       .  A
C873        F878   1.358       .  S
C874        C875   1.404       .  A
C874        F890   1.357       .  S
C875        C876   1.407       .  A
C876        F879   1.358       .  S
C877        C880   1.404       .  A
C877        C884   1.404       .  A
C880        C881   1.398       .  A
C880        F885   1.358       .  S
C881        C882   1.407       .  A
C881        F887   1.358       .  S
C882        C883   1.408       .  A
C883        C884   1.400       .  A
C883        F886   1.357       .  S
C884        F888   1.358       .  S
C891        C892   1.407       .  A
C891        C896   1.399       .  A
C891        F909   1.358       .  S
C892        C897   1.481       .  S
C892        C893   1.406       .  A
C893        C894   1.399       .  A
C893        F898   1.358       .  S
C894        C895   1.404       .  A
C894        F910   1.358       .  S
C895        C896   1.404       .  A
C896        F899   1.358       .  S
C897        C900   1.406       .  A
C897        C904   1.407       .  A
C900        C901   1.396       .  A
C900        F905   1.358       .  S
C901        C902   1.402       .  A
C901        F907   1.356       .  S
C902        C903   1.403       .  A
C903        C904   1.400       .  A
C903        F906   1.358       .  S
C904        F908   1.358       .  S
C911        C912   1.407       .  A
C911        C916   1.402       .  A
C911        F929   1.358       .  S
C912        C917   1.482       .  S
C912        C913   1.405       .  A
C913        C914   1.393       .  A
C913        F918   1.358       .  S
C914        C915   1.408       .  A
C914        F930   1.358       .  S
C915        C916   1.408       .  A
C916       F2319   1.357       .  S
C917        C920   1.405       .  A
C917        C924   1.403       .  A
F919       C2316   1.357       .  S
C920        C921   1.401       .  A
C920        F925   1.358       .  S
C921        C922   1.412       .  A
C921        F927   1.357       .  S
C922        C923   1.407       .  A
C923        C924   1.393       .  A
C923        F926   1.350       .  S
C924        F928   1.359       .  S
C931        C932   1.409       .  A
C931        C936   1.400       .  A
C931        F949   1.358       .  S
C932        C937   1.489       .  S
C932        C933   1.409       .  A
C933        C934   1.399       .  A
C933        F938   1.358       .  S
C934        C935   1.402       .  A
C934        F950   1.357       .  S
C935        C936   1.402       .  A
C936        F939   1.357       .  S
C937        C940   1.409       .  A
C937        C944   1.409       .  A
C940        C941   1.400       .  A
C940        F945   1.358       .  S
C941        C942   1.404       .  A
C941        F947   1.358       .  S
C942        C943   1.403       .  A
C943        C944   1.399       .  A
C943        F946   1.358       .  S
C944        F948   1.358       .  S
C951        C952   1.405       .  A
C951        C956   1.397       .  A
C951        F969   1.358       .  S
C952        C957   1.479       .  S
C952        C953   1.406       .  A
C953        C954   1.401       .  A
C953        F958   1.358       .  S
C954        C955   1.406       .  A
C954        F970   1.358       .  S
C955        C956   1.404       .  A
C956        F959   1.357       .  S
C957        C960   1.405       .  A
C957        C964   1.406       .  A
C960        C961   1.397       .  A
C960        F965   1.358       .  S
C961        C962   1.402       .  A
C961        F967   1.355       .  S
C962        C963   1.404       .  A
C963        C964   1.401       .  A
C963        F966   1.358       .  S
C964        F968   1.358       .  S
C971        C972   1.402       .  A
C971        C976   1.397       .  A
C971        F989   1.358       .  S
C972        C977   1.470       .  S
C972        C973   1.403       .  A
C973        C974   1.397       .  A
C973        F978   1.358       .  S
C974        C975   1.406       .  A
C974        F990   1.358       .  S
C975        C976   1.407       .  A
C976        F979   1.358       .  S
C977        C980   1.399       .  A
C977        C984   1.404       .  A
C980        C981   1.391       .  A
C980        F985   1.358       .  S
C981        C982   1.404       .  A
C981        F987   1.353       .  S
C982        C983   1.406       .  A
C983        C984   1.402       .  A
C983        F986   1.357       .  S
C984        F988   1.358       .  S
C991        C992   1.409       .  A
C991        C996   1.400       .  A
C991       F1009   1.357       .  S
C992        C997   1.493       .  S
C992        C993   1.407       .  A
C993        C994   1.392       .  A
C993        F998   1.358       .  S
C994        C995   1.408       .  A
C994       F1010   1.350       .  S
C995        C996   1.411       .  A
C996        F999   1.355       .  S
C997       C1000   1.410       .  A
C997       C1004   1.410       .  A
C1000      C1001   1.400       .  A
C1000      F1005   1.358       .  S
C1001      C1002   1.410       .  A
C1001      F2407   1.357       .  S
C1002      C1003   1.408       .  A
C1003      C1004   1.393       .  A
C1003      F1006   1.358       .  S
C1004      F1008   1.358       .  S
F1007      C2401   1.357       .  S
C1011      C1012   1.404       .  A
C1011      C1016   1.392       .  A
C1011      F1029   1.358       .  S
C1012      C1017   1.480       .  S
C1012      C1013   1.406       .  A
C1013      C1014   1.403       .  A
C1013      F1018   1.358       .  S
C1014      C1015   1.409       .  A
C1014      F1030   1.357       .  S
C1015      C1016   1.408       .  A
C1016      F1019   1.358       .  S
C1017      C1020   1.401       .  A
C1017      C1024   1.405       .  A
C1020      C1021   1.392       .  A
C1020      F1025   1.359       .  S
C1021      C1022   1.406       .  A
C1021      F1027   1.348       .  S
C1022      C1023   1.411       .  A
C1023      C1024   1.402       .  A
C1023      F1026   1.357       .  S
C1024      F1028   1.357       .  S
C1031      C1032   1.403       .  A
C1031      C1036   1.399       .  A
C1031      F1049   1.358       .  S
C1032      C1037   1.474       .  S
C1032      C1033   1.402       .  A
C1033      C1034   1.396       .  A
C1033      F1038   1.358       .  S
C1034      C1035   1.407       .  A
C1034      F1050   1.356       .  S
C1035      C1036   1.408       .  A
C1036      F1039   1.357       .  S
C1037      C1040   1.403       .  A
C1037      C1044   1.404       .  A
C1040      C1041   1.396       .  A
C1040      F1045   1.358       .  S
C1041      C1042   1.406       .  A
C1041      F1047   1.358       .  S
C1042      C1043   1.407       .  A
C1043      C1044   1.400       .  A
C1043      F1046   1.358       .  S
C1044      F1048   1.358       .  S
C1051      H1052   1.111       .  S
C1051      C1057   1.543       .  S
C1051      C1056   1.531       .  S
C1051      C1055   1.540       .  S
C1053      H1054   1.108       .  S
C1053      C1059   1.538       .  S
C1053      C1058   1.537       .  S
C1053      C1060   1.539       .  S
C1055      C1058   1.378       .  D
C1055      C1372   1.495       .  S
C1056      C1059   1.368       .  D
C1056      C1312   1.478       .  S
C1057      C1060   1.380       .  D
C1057      C1332   1.483       .  S
C1058      C1385   1.487       .  S
C1059      C1285   1.479       .  S
C1060      C1345   1.500       .  S
O1061     Ni1069   1.832       .  S
O1061      C1071   1.242       .  A
O1062      C1072   1.243       .  A
O1063     Ni1069   1.912       .  S
O1063      C1073   1.270       .  A
O1064      C1074   1.271       .  A
O1065      C1074   1.290       .  A
O1066     Ni1070   1.961       .  S
O1066      C1073   1.290       .  A
O1067      C1072   1.295       .  A
O1068     Ni1070   1.984       .  S
O1068      C1071   1.295       .  A
Ni1069    Ni1070   2.299       .  S
C1071      C1139   1.498       .  S
C1072      C1107   1.500       .  S
C1073      C1122   1.512       .  S
C1074      C1146   1.515       .  S
O1075     Ni1083   1.844       .  S
O1075      C1085   1.245       .  A
O1076      C1086   1.245       .  A
O1077      C1087   1.271       .  A
O1078      C1088   1.269       .  A
O1079      C1088   1.292       .  A
O1080      C1087   1.292       .  A
O1081      C1086   1.296       .  A
O1082     Ni1084   1.992       .  S
O1082      C1085   1.295       .  A
Ni1083    Ni1084   2.298       .  S
C1085      C1123   1.510       .  S
C1086      C1114   1.509       .  S
C1087      C1131   1.520       .  S
C1088      C1106   1.521       .  S
O1089     Ni1097   1.839   1_455  S
O1089      C1099   1.244       .  A
O1090     Ni2147   1.841   1_556  S
O1090      C1100   1.244       .  A
O1091     Ni2497   1.909       .  S
O1091      C1101   1.269       .  A
O1092      C1102   1.269       .  A
O1093     Ni2148   1.972   1_456  S
O1093      C1102   1.292       .  A
O1094     Ni1098   1.970       .  S
O1094      C1101   1.292       .  A
O1095      C1100   1.295       .  A
O1096     Ni2498   1.982   1_455  S
O1096      C1099   1.294       .  A
Ni1097     O2140   1.841       .  S
Ni1097     O2491   1.909       .  S
Ni1097    Ni2498   2.299       .  S
Ni1098     O2143   1.972       .  S
Ni1098     O2496   1.982       .  S
Ni1098    Ni2497   2.299       .  S
C1099      C1147   1.500       .  S
C1100      C1130   1.503       .  S
C1101      C1115   1.515       .  S
C1102      C1138   1.519       .  S
C1103      C1265   1.488       .  S
C1103      C2504   1.421   1_455  A
C1103      C1108   1.402       .  A
C1104      C1352   1.494       .  S
C1104      C2503   1.421       .  A
C1104      C1105   1.410       .  A
C1105      C1106   1.399       .  A
C1105      H1110   1.082       .  S
C1106      C2507   1.458       .  A
C1107      C2506   1.458   1_455  A
C1107      C1108   1.397       .  A
C1108      H1109   1.082       .  S
C1111      C1292   1.482       .  S
C1111      C1112   1.410       .  A
C1111      C1116   1.400       .  A
C1112      C1245   1.480       .  S
C1112      C1113   1.403       .  A
C1113      C1114   1.404       .  A
C1113      H1118   1.083       .  S
C1114      C1115   1.464       .  A
C1115      C1116   1.402       .  A
C1116      H1117   1.084       .  S
C1119      C1325   1.482       .  S
C1119      C2520   1.414       .  A
C1119      C1124   1.406       .  A
C1120      C1232   1.488       .  S
C1120      C2519   1.414   1_455  A
C1120      C1121   1.399       .  A
C1121      C1122   1.401       .  A
C1121      H1126   1.085       .  S
C1122      C2523   1.462   1_455  A
C1123      C2522   1.462       .  A
C1123      C1124   1.403       .  A
C1124      H1125   1.084       .  S
C1127      C1212   1.484       .  S
C1127      C1128   1.412       .  A
C1127      C1132   1.404       .  A
C1128      C1305   1.481       .  S
C1128      C1129   1.400       .  A
C1129      C1130   1.402       .  A
C1129      H1134   1.083       .  S
C1130      C1131   1.463       .  A
C1131      C1132   1.404       .  A
C1132      H1133   1.083       .  S
C1135      C1365   1.488       .  S
C1135      C1140   1.402       .  A
C1136      C1192   1.495       .  S
C1136      C1137   1.409       .  A
C1137      C1138   1.397       .  A
C1137      H1142   1.083       .  S
C1139      C1140   1.396       .  A
C1140      H1141   1.085       .  S
C1143      C1165   1.482       .  S
C1143      C1148   1.401       .  A
C1144      C1392   1.482       .  S
C1144      C1145   1.401       .  A
C1145      C1146   1.399       .  A
C1145      H1150   1.085       .  S
C1147      C1148   1.401       .  A
C1148      H1149   1.084       .  S
C1151      H1152   1.109       .  S
C1151      C1157   1.539       .  S
C1151      C1156   1.539       .  S
C1151      C1155   1.539       .  S
C1153      H1154   1.110       .  S
C1153      C1159   1.544       .  S
C1153      C1158   1.539       .  S
C1153      C1160   1.530       .  S
C1155      C1158   1.379       .  D
C1155      C1225   1.485       .  S
C1156      C1159   1.382       .  D
C1156      C1185   1.501       .  S
C1157      C1160   1.366       .  D
C1157      C1205   1.480       .  S
C1158      C1272   1.497       .  S
C1159      C1172   1.484       .  S
C1160      C1252   1.477       .  S
C1161      C1162   1.403       .  A
C1161      C1166   1.398       .  A
C1161      F1179   1.358       .  S
C1162      C1167   1.473       .  S
C1162      C1163   1.403       .  A
C1163      C1164   1.398       .  A
C1163      F1168   1.358       .  S
C1164      C1165   1.406       .  A
C1164      F1180   1.358       .  S
C1165      C1166   1.407       .  A
C1166      F1169   1.357       .  S
C1167      C1170   1.401       .  A
C1167      C1174   1.404       .  A
C1170      C1171   1.395       .  A
C1170      F1175   1.358       .  S
C1171      C1172   1.406       .  A
C1171      F1177   1.355       .  S
C1172      C1173   1.405       .  A
C1173      C1174   1.401       .  A
C1173      F1176   1.357       .  S
C1174      F1178   1.358       .  S
C1181      C1182   1.408       .  A
C1181      C1186   1.401       .  A
C1181      F1199   1.357       .  S
C1182      C1187   1.493       .  S
C1182      C1183   1.407       .  A
C1183      C1184   1.392       .  A
C1183      F1188   1.358       .  S
C1184      C1185   1.406       .  A
C1184      F1200   1.351       .  S
C1185      C1186   1.412       .  A
C1186      F1189   1.353       .  S
C1187      C1190   1.410       .  A
C1187      C1194   1.408       .  A
C1190      C1191   1.401       .  A
C1190      F1195   1.357       .  S
C1191      C1192   1.410       .  A
C1192      C1193   1.409       .  A
C1193      C1194   1.391       .  A
C1193      F1196   1.358       .  S
C1194      F1198   1.358       .  S
C1201      C1202   1.409       .  A
C1201      C1206   1.401       .  A
C1201      F1219   1.358       .  S
C1202      C1207   1.487       .  S
C1202      C1203   1.408       .  A
C1203      C1204   1.397       .  A
C1203      F1208   1.358       .  S
C1204      C1205   1.402       .  A
C1204      F1220   1.356       .  S
C1205      C1206   1.403       .  A
C1206      F1209   1.358       .  S
C1207      C1210   1.409       .  A
C1207      C1214   1.408       .  A
C1210      C1211   1.400       .  A
C1210      F1215   1.358       .  S
C1211      C1212   1.405       .  A
C1211      F1217   1.358       .  S
C1212      C1213   1.404       .  A
C1213      C1214   1.399       .  A
C1213      F1216   1.357       .  S
C1214      F1218   1.358       .  S
C1221      C1222   1.405       .  A
C1221      C1226   1.401       .  A
C1221      F1239   1.358       .  S
C1222      C1227   1.479       .  S
C1222      C1223   1.404       .  A
C1223      C1224   1.397       .  A
C1223      F1228   1.358       .  S
C1224      C1225   1.404       .  A
C1224      F1240   1.356       .  S
C1225      C1226   1.408       .  A
C1226      F1229   1.358       .  S
C1227      C1230   1.404       .  A
C1227      C1234   1.404       .  A
C1230      C1231   1.398       .  A
C1230      F1235   1.358       .  S
C1231      C1232   1.407       .  A
C1231      F1237   1.358       .  S
C1232      C1233   1.408       .  A
C1233      C1234   1.400       .  A
C1233      F1236   1.357       .  S
C1234      F1238   1.358       .  S
C1241      C1242   1.407       .  A
C1241      C1246   1.399       .  A
C1241      F1259   1.358       .  S
C1242      C1247   1.481       .  S
C1242      C1243   1.406       .  A
C1243      C1244   1.399       .  A
C1243      F1248   1.358       .  S
C1244      C1245   1.404       .  A
C1244      F1260   1.358       .  S
C1245      C1246   1.404       .  A
C1246      F1249   1.358       .  S
C1247      C1250   1.406       .  A
C1247      C1254   1.407       .  A
C1250      C1251   1.396       .  A
C1250      F1255   1.358       .  S
C1251      C1252   1.402       .  A
C1251      F1257   1.356       .  S
C1252      C1253   1.403       .  A
C1253      C1254   1.400       .  A
C1253      F1256   1.358       .  S
C1254      F1258   1.358       .  S
C1261      C1262   1.407       .  A
C1261      C1266   1.402       .  A
C1261      F1279   1.358       .  S
C1262      C1267   1.482       .  S
C1262      C1263   1.405       .  A
C1263      C1264   1.394       .  A
C1263      F1268   1.358       .  S
C1264      C1265   1.408       .  A
C1264      F1280   1.358       .  S
C1265      C1266   1.408       .  A
C1266      F2669   1.357       .  S
C1267      C1270   1.405       .  A
C1267      C1274   1.403       .  A
F1269      C2666   1.357       .  S
C1270      C1271   1.401       .  A
C1270      F1275   1.358       .  S
C1271      C1272   1.412       .  A
C1271      F1277   1.357       .  S
C1272      C1273   1.407       .  A
C1273      C1274   1.393       .  A
C1273      F1276   1.350       .  S
C1274      F1278   1.359       .  S
C1281      C1282   1.409       .  A
C1281      C1286   1.400       .  A
C1281      F1299   1.358       .  S
C1282      C1287   1.489       .  S
C1282      C1283   1.409       .  A
C1283      C1284   1.399       .  A
C1283      F1288   1.358       .  S
C1284      C1285   1.402       .  A
C1284      F1300   1.357       .  S
C1285      C1286   1.402       .  A
C1286      F1289   1.357       .  S
C1287      C1290   1.409       .  A
C1287      C1294   1.409       .  A
C1290      C1291   1.400       .  A
C1290      F1295   1.358       .  S
C1291      C1292   1.404       .  A
C1291      F1297   1.358       .  S
C1292      C1293   1.403       .  A
C1293      C1294   1.399       .  A
C1293      F1296   1.358       .  S
C1294      F1298   1.358       .  S
C1301      C1302   1.405       .  A
C1301      C1306   1.397       .  A
C1301      F1319   1.358       .  S
C1302      C1307   1.479       .  S
C1302      C1303   1.406       .  A
C1303      C1304   1.401       .  A
C1303      F1308   1.358       .  S
C1304      C1305   1.406       .  A
C1304      F1320   1.358       .  S
C1305      C1306   1.404       .  A
C1306      F1309   1.357       .  S
C1307      C1310   1.405       .  A
C1307      C1314   1.406       .  A
C1310      C1311   1.397       .  A
C1310      F1315   1.358       .  S
C1311      C1312   1.402       .  A
C1311      F1317   1.355       .  S
C1312      C1313   1.404       .  A
C1313      C1314   1.401       .  A
C1313      F1316   1.358       .  S
C1314      F1318   1.358       .  S
C1321      C1322   1.402       .  A
C1321      C1326   1.397       .  A
C1321      F1339   1.358       .  S
C1322      C1327   1.471       .  S
C1322      C1323   1.403       .  A
C1323      C1324   1.397       .  A
C1323      F1328   1.358       .  S
C1324      C1325   1.406       .  A
C1324      F1340   1.358       .  S
C1325      C1326   1.407       .  A
C1326      F1329   1.357       .  S
C1327      C1330   1.399       .  A
C1327      C1334   1.404       .  A
C1330      C1331   1.391       .  A
C1330      F1335   1.358       .  S
C1331      C1332   1.404       .  A
C1331      F1337   1.353       .  S
C1332      C1333   1.406       .  A
C1333      C1334   1.402       .  A
C1333      F1336   1.357       .  S
C1334      F1338   1.358       .  S
C1341      C1342   1.409       .  A
C1341      C1346   1.400       .  A
C1341      F1359   1.357       .  S
C1342      C1347   1.493       .  S
C1342      C1343   1.407       .  A
C1343      C1344   1.392       .  A
C1343      F1348   1.358       .  S
C1344      C1345   1.407       .  A
C1344      F1360   1.350       .  S
C1345      C1346   1.411       .  A
C1346      F1349   1.355       .  S
C1347      C1350   1.410       .  A
C1347      C1354   1.410       .  A
C1350      C1351   1.400       .  A
C1350      F1355   1.358       .  S
C1351      C1352   1.410       .  A
C1351      F2757   1.357       .  S
C1352      C1353   1.408       .  A
C1353      C1354   1.393       .  A
C1353      F1356   1.358       .  S
C1354      F1358   1.358       .  S
F1357      C2751   1.357       .  S
C1361      C1362   1.404       .  A
C1361      C1366   1.392       .  A
C1361      F1379   1.358       .  S
C1362      C1367   1.480       .  S
C1362      C1363   1.406       .  A
C1363      C1364   1.403       .  A
C1363      F1368   1.358       .  S
C1364      C1365   1.409       .  A
C1364      F1380   1.357       .  S
C1365      C1366   1.408       .  A
C1366      F1369   1.358       .  S
C1367      C1370   1.402       .  A
C1367      C1374   1.405       .  A
C1370      C1371   1.392       .  A
C1370      F1375   1.359       .  S
C1371      C1372   1.405       .  A
C1371      F1377   1.348       .  S
C1372      C1373   1.411       .  A
C1373      C1374   1.402       .  A
C1373      F1376   1.357       .  S
C1374      F1378   1.357       .  S
C1381      C1382   1.403       .  A
C1381      C1386   1.399       .  A
C1381      F1399   1.358       .  S
C1382      C1387   1.474       .  S
C1382      C1383   1.402       .  A
C1383      C1384   1.396       .  A
C1383      F1388   1.358       .  S
C1384      C1385   1.407       .  A
C1384      F1400   1.356       .  S
C1385      C1386   1.408       .  A
C1386      F1389   1.357       .  S
C1387      C1390   1.403       .  A
C1387      C1394   1.404       .  A
C1390      C1391   1.395       .  A
C1390      F1395   1.358       .  S
C1391      C1392   1.406       .  A
C1391      F1397   1.358       .  S
C1392      C1393   1.407       .  A
C1393      C1394   1.400       .  A
C1393      F1396   1.358       .  S
C1394      F1398   1.358       .  S
C1401      H1402   1.111       .  S
C1401      C1407   1.543       .  S
C1401      C1406   1.531       .  S
C1401      C1405   1.540       .  S
C1403      H1404   1.108       .  S
C1403      C1409   1.538       .  S
C1403      C1408   1.537       .  S
C1403      C1410   1.539       .  S
C1405      C1408   1.379       .  D
C1405      C1722   1.495       .  S
C1406      C1409   1.368       .  D
C1406      C1662   1.478       .  S
C1407      C1410   1.380       .  D
C1407      C1682   1.483       .  S
C1408      C1735   1.487       .  S
C1409      C1635   1.479       .  S
C1410      C1695   1.500       .  S
O1411     Ni1419   1.832       .  S
O1411      C1421   1.242       .  A
O1412     Ni1769   1.833   1_554  S
O1412      C1422   1.243       .  A
O1413     Ni1419   1.912       .  S
O1413      C1423   1.270       .  A
O1414     Ni1769   1.913   1_554  S
O1414      C1424   1.271       .  A
O1415     Ni1770   1.963   1_554  S
O1415      C1424   1.290       .  A
O1416     Ni1420   1.961       .  S
O1416      C1423   1.290       .  A
O1417     Ni1770   1.985   1_554  S
O1417      C1422   1.295       .  A
O1418     Ni1420   1.984       .  S
O1418      C1421   1.295       .  A
Ni1419     O1762   1.833       .  S
Ni1419     O1764   1.914       .  S
Ni1419    Ni1420   2.299       .  S
Ni1420     O1765   1.963       .  S
Ni1420     O1767   1.985       .  S
C1421      C1489   1.498       .  S
C1422      C1457   1.500       .  S
C1423      C1472   1.512       .  S
C1424      C1496   1.515       .  S
O1425     Ni1433   1.844   1_545  S
O1425      C1435   1.245       .  A
O1426     Ni2483   1.844   1_554  S
O1426      C1436   1.245       .  A
O1427     Ni2133   1.914       .  S
O1427      C1437   1.271       .  A
O1428     Ni1783   1.911   1_544  S
O1428      C1438   1.269       .  A
O1429     Ni1784   1.973   1_544  S
O1429      C1438   1.292       .  A
O1430     Ni2134   1.973       .  S
O1430      C1437   1.292       .  A
O1431     Ni2484   1.994   1_554  S
O1431      C1436   1.296       .  A
O1432     Ni1434   1.992   1_545  S
O1432      C1435   1.295       .  A
Ni1433     O2476   1.843       .  S
Ni1433     O2127   1.914       .  S
Ni1433     O1778   1.911   1_565  S
Ni1433    Ni1434   2.297       .  S
Ni1434     O1779   1.973   1_565  S
Ni1434     O2130   1.973       .  S
Ni1434     O2481   1.994       .  S
C1435      C1473   1.509       .  S
C1436      C1464   1.509       .  S
C1437      C1481   1.520       .  S
C1438      C1456   1.521       .  S
O1439     Ni1447   1.839       .  S
O1439      C1449   1.244       .  A
O1440      C1450   1.244       .  A
O1441      C1451   1.269       .  A
O1442     Ni1797   1.909       .  S
O1442      C1452   1.269       .  A
O1443      C1452   1.292       .  A
O1444     Ni1448   1.970       .  S
O1444      C1451   1.292       .  A
O1445     Ni1798   1.986       .  S
O1445      C1450   1.295       .  A
O1446      C1449   1.294       .  A
Ni1447     O1792   1.909   1_554  S
Ni1448     O1795   1.986   1_554  S
C1449      C1497   1.500       .  S
C1450      C1480   1.503       .  S
C1451      C1465   1.515       .  S
C1452      C1488   1.519       .  S
C1453      C1615   1.488       .  S
C1453      C1458   1.402       .  A
C1454      C1702   1.494       .  S
C1454      C1455   1.410       .  A
C1455      C1456   1.399       .  A
C1455      H1460   1.082       .  S
C1457      C1458   1.397       .  A
C1458      H1459   1.082       .  S
C1461      C1642   1.482       .  S
C1461      C1462   1.410       .  A
C1461      C1466   1.400       .  A
C1462      C1595   1.480       .  S
C1462      C1463   1.403       .  A
C1463      C1464   1.404       .  A
C1463      H1468   1.083       .  S
C1464      C1465   1.464       .  A
C1465      C1466   1.402       .  A
C1466      H1467   1.084       .  S
C1469      C1675   1.481       .  S
C1469      C1474   1.406       .  A
C1470      C1582   1.488       .  S
C1470      C1471   1.399       .  A
C1471      C1472   1.401       .  A
C1471      H1476   1.085       .  S
C1473      C1474   1.403       .  A
C1474      H1475   1.084       .  S
C1477      C1562   1.484       .  S
C1477      C1478   1.412       .  A
C1477      C1482   1.404       .  A
C1478      C1655   1.481       .  S
C1478      C1479   1.400       .  A
C1479      C1480   1.402       .  A
C1479      H1484   1.083       .  S
C1480      C1481   1.463       .  A
C1481      C1482   1.404       .  A
C1482      H1483   1.083       .  S
C1485      C1715   1.488       .  S
C1485      C2186   1.423   1_545  A
C1485      C1490   1.403       .  A
C1486      C1542   1.495       .  S
C1486      C2185   1.423       .  A
C1486      C1487   1.410       .  A
C1487      C1488   1.397       .  A
C1487      H1492   1.083       .  S
C1488      C2189   1.457       .  A
C1489      C2188   1.457   1_545  A
C1489      C1490   1.396       .  A
C1490      H1491   1.085       .  S
C1493      C1515   1.482       .  S
C1493      C2194   1.413       .  A
C1493      C1498   1.401       .  A
C1494      C1742   1.482       .  S
C1494      C2193   1.413   1_545  A
C1494      C1495   1.401       .  A
C1495      C1496   1.399       .  A
C1495      H1500   1.085       .  S
C1496      C2197   1.460   1_545  A
C1497      C2196   1.460       .  A
C1497      C1498   1.401       .  A
C1498      H1499   1.084       .  S
C1501      H1502   1.109       .  S
C1501      C1507   1.539       .  S
C1501      C1506   1.539       .  S
C1501      C1505   1.539       .  S
C1503      H1504   1.110       .  S
C1503      C1509   1.544       .  S
C1503      C1508   1.539       .  S
C1503      C1510   1.530       .  S
C1505      C1508   1.379       .  D
C1505      C1575   1.485       .  S
C1506      C1509   1.382       .  D
C1506      C1535   1.501       .  S
C1507      C1510   1.366       .  D
C1507      C1555   1.480       .  S
C1508      C1622   1.497       .  S
C1509      C1522   1.484       .  S
C1510      C1602   1.477       .  S
C1511      C1512   1.403       .  A
C1511      C1516   1.398       .  A
C1511      F1529   1.358       .  S
C1512      C1517   1.473       .  S
C1512      C1513   1.403       .  A
C1513      C1514   1.398       .  A
C1513      F1518   1.358       .  S
C1514      C1515   1.406       .  A
C1514      F1530   1.358       .  S
C1515      C1516   1.407       .  A
C1516      F1519   1.357       .  S
C1517      C1520   1.401       .  A
C1517      C1524   1.404       .  A
C1520      C1521   1.395       .  A
C1520      F1525   1.358       .  S
C1521      C1522   1.406       .  A
C1521      F1527   1.355       .  S
C1522      C1523   1.405       .  A
C1523      C1524   1.401       .  A
C1523      F1526   1.357       .  S
C1524      F1528   1.358       .  S
C1531      C1532   1.408       .  A
C1531      C1536   1.401       .  A
C1531      F1549   1.357       .  S
C1532      C1537   1.493       .  S
C1532      C1533   1.407       .  A
C1533      C1534   1.392       .  A
C1533      F1538   1.358       .  S
C1534      C1535   1.406       .  A
C1534      F1550   1.351       .  S
C1535      C1536   1.412       .  A
C1536      F1539   1.353       .  S
C1537      C1540   1.410       .  A
C1537      C1544   1.408       .  A
C1540      C1541   1.401       .  A
C1540      F1545   1.357       .  S
C1541      C1542   1.410       .  A
C1541      F2247   1.356       .  S
C1542      C1543   1.409       .  A
C1543      C1544   1.391       .  A
C1543      F1546   1.358       .  S
C1544      F1548   1.358       .  S
F1547      C2241   1.356       .  S
C1551      C1552   1.409       .  A
C1551      C1556   1.401       .  A
C1551      F1569   1.358       .  S
C1552      C1557   1.487       .  S
C1552      C1553   1.408       .  A
C1553      C1554   1.397       .  A
C1553      F1558   1.358       .  S
C1554      C1555   1.402       .  A
C1554      F1570   1.356       .  S
C1555      C1556   1.403       .  A
C1556      F1559   1.358       .  S
C1557      C1560   1.409       .  A
C1557      C1564   1.408       .  A
C1560      C1561   1.400       .  A
C1560      F1565   1.358       .  S
C1561      C1562   1.405       .  A
C1561      F1567   1.358       .  S
C1562      C1563   1.404       .  A
C1563      C1564   1.399       .  A
C1563      F1566   1.357       .  S
C1564      F1568   1.358       .  S
C1571      C1572   1.405       .  A
C1571      C1576   1.401       .  A
C1571      F1589   1.358       .  S
C1572      C1577   1.479       .  S
C1572      C1573   1.404       .  A
C1573      C1574   1.397       .  A
C1573      F1578   1.358       .  S
C1574      C1575   1.404       .  A
C1574      F1590   1.357       .  S
C1575      C1576   1.408       .  A
C1576      F1579   1.358       .  S
C1577      C1580   1.404       .  A
C1577      C1584   1.404       .  A
C1580      C1581   1.398       .  A
C1580      F1585   1.358       .  S
C1581      C1582   1.407       .  A
C1581      F1587   1.358       .  S
C1582      C1583   1.408       .  A
C1583      C1584   1.400       .  A
C1583      F1586   1.357       .  S
C1584      F1588   1.358       .  S
C1591      C1592   1.407       .  A
C1591      C1596   1.399       .  A
C1591      F1609   1.358       .  S
C1592      C1597   1.481       .  S
C1592      C1593   1.406       .  A
C1593      C1594   1.399       .  A
C1593      F1598   1.358       .  S
C1594      C1595   1.404       .  A
C1594      F1610   1.358       .  S
C1595      C1596   1.404       .  A
C1596      F1599   1.358       .  S
C1597      C1600   1.406       .  A
C1597      C1604   1.407       .  A
C1600      C1601   1.396       .  A
C1600      F1605   1.358       .  S
C1601      C1602   1.402       .  A
C1601      F1607   1.356       .  S
C1602      C1603   1.403       .  A
C1603      C1604   1.401       .  A
C1603      F1606   1.358       .  S
C1604      F1608   1.358       .  S
C1611      C1612   1.407       .  A
C1611      C1616   1.402       .  A
C1611      F1629   1.358       .  S
C1612      C1617   1.482       .  S
C1612      C1613   1.405       .  A
C1613      C1614   1.393       .  A
C1613      F1618   1.358       .  S
C1614      C1615   1.408       .  A
C1614      F1630   1.358       .  S
C1615      C1616   1.408       .  A
C1617      C1620   1.405       .  A
C1617      C1624   1.403       .  A
C1620      C1621   1.401       .  A
C1620      F1625   1.358       .  S
C1621      C1622   1.412       .  A
C1621      F1627   1.357       .  S
C1622      C1623   1.407       .  A
C1623      C1624   1.393       .  A
C1623      F1626   1.350       .  S
C1624      F1628   1.359       .  S
C1631      C1632   1.409       .  A
C1631      C1636   1.400       .  A
C1631      F1649   1.358       .  S
C1632      C1637   1.489       .  S
C1632      C1633   1.409       .  A
C1633      C1634   1.399       .  A
C1633      F1638   1.358       .  S
C1634      C1635   1.402       .  A
C1634      F1650   1.357       .  S
C1635      C1636   1.402       .  A
C1636      F1639   1.357       .  S
C1637      C1640   1.409       .  A
C1637      C1644   1.409       .  A
C1640      C1641   1.400       .  A
C1640      F1645   1.358       .  S
C1641      C1642   1.404       .  A
C1641      F1647   1.358       .  S
C1642      C1643   1.403       .  A
C1643      C1644   1.399       .  A
C1643      F1646   1.358       .  S
C1644      F1648   1.358       .  S
C1651      C1652   1.405       .  A
C1651      C1656   1.397       .  A
C1651      F1669   1.358       .  S
C1652      C1657   1.479       .  S
C1652      C1653   1.406       .  A
C1653      C1654   1.401       .  A
C1653      F1658   1.358       .  S
C1654      C1655   1.406       .  A
C1654      F1670   1.358       .  S
C1655      C1656   1.404       .  A
C1656      F1659   1.357       .  S
C1657      C1660   1.405       .  A
C1657      C1664   1.406       .  A
C1660      C1661   1.397       .  A
C1660      F1665   1.358       .  S
C1661      C1662   1.402       .  A
C1661      F1667   1.355       .  S
C1662      C1663   1.404       .  A
C1663      C1664   1.401       .  A
C1663      F1666   1.358       .  S
C1664      F1668   1.358       .  S
C1671      C1672   1.402       .  A
C1671      C1676   1.397       .  A
C1671      F1689   1.358       .  S
C1672      C1677   1.470       .  S
C1672      C1673   1.403       .  A
C1673      C1674   1.397       .  A
C1673      F1678   1.358       .  S
C1674      C1675   1.406       .  A
C1674      F1690   1.358       .  S
C1675      C1676   1.407       .  A
C1676      F1679   1.358       .  S
C1677      C1680   1.399       .  A
C1677      C1684   1.404       .  A
C1680      C1681   1.391       .  A
C1680      F1685   1.358       .  S
C1681      C1682   1.404       .  A
C1681      F1687   1.353       .  S
C1682      C1683   1.406       .  A
C1683      C1684   1.402       .  A
C1683      F1686   1.357       .  S
C1684      F1688   1.358       .  S
C1691      C1692   1.409       .  A
C1691      C1696   1.400       .  A
C1691      F1709   1.357       .  S
C1692      C1697   1.493       .  S
C1692      C1693   1.407       .  A
C1693      C1694   1.392       .  A
C1693      F1698   1.358       .  S
C1694      C1695   1.407       .  A
C1694      F1710   1.350       .  S
C1695      C1696   1.411       .  A
C1696      F1699   1.355       .  S
C1697      C1700   1.410       .  A
C1697      C1704   1.409       .  A
C1700      C1701   1.400       .  A
C1700      F1705   1.358       .  S
C1701      C1702   1.410       .  A
C1702      C1703   1.408       .  A
C1703      C1704   1.393       .  A
C1703      F1706   1.358       .  S
C1704      F1708   1.358       .  S
C1711      C1712   1.404       .  A
C1711      C1716   1.392       .  A
C1711      F1729   1.358       .  S
C1712      C1717   1.480       .  S
C1712      C1713   1.406       .  A
C1713      C1714   1.403       .  A
C1713      F1718   1.358       .  S
C1714      C1715   1.409       .  A
C1714      F1730   1.357       .  S
C1715      C1716   1.408       .  A
C1716      F1719   1.358       .  S
C1717      C1720   1.401       .  A
C1717      C1724   1.405       .  A
C1720      C1721   1.392       .  A
C1720      F1725   1.359       .  S
C1721      C1722   1.406       .  A
C1721      F1727   1.348       .  S
C1722      C1723   1.411       .  A
C1723      C1724   1.402       .  A
C1723      F1726   1.357       .  S
C1724      F1728   1.357       .  S
C1731      C1732   1.403       .  A
C1731      C1736   1.399       .  A
C1731      F1749   1.358       .  S
C1732      C1737   1.474       .  S
C1732      C1733   1.402       .  A
C1733      C1734   1.396       .  A
C1733      F1738   1.358       .  S
C1734      C1735   1.407       .  A
C1734      F1750   1.356       .  S
C1735      C1736   1.408       .  A
C1736      F1739   1.357       .  S
C1737      C1740   1.403       .  A
C1737      C1744   1.404       .  A
C1740      C1741   1.395       .  A
C1740      F1745   1.358       .  S
C1741      C1742   1.406       .  A
C1741      F1747   1.358       .  S
C1742      C1743   1.407       .  A
C1743      C1744   1.400       .  A
C1743      F1746   1.358       .  S
C1744      F1748   1.358       .  S
C1751      H1752   1.111       .  S
C1751      C1757   1.543       .  S
C1751      C1756   1.531       .  S
C1751      C1755   1.540       .  S
C1753      H1754   1.108       .  S
C1753      C1759   1.538       .  S
C1753      C1758   1.537       .  S
C1753      C1760   1.539       .  S
C1755      C1758   1.378       .  D
C1755      C2072   1.495       .  S
C1756      C1759   1.368       .  D
C1756      C2012   1.478       .  S
C1757      C1760   1.380       .  D
C1757      C2032   1.483       .  S
C1758      C2085   1.487       .  S
C1759      C1985   1.479       .  S
C1760      C2045   1.500       .  S
O1761     Ni1769   1.832       .  S
O1761      C1771   1.242       .  A
O1762      C1772   1.243       .  A
O1763     Ni1769   1.912       .  S
O1763      C1773   1.270       .  A
O1764      C1774   1.271       .  A
O1765      C1774   1.290       .  A
O1766     Ni1770   1.961       .  S
O1766      C1773   1.290       .  A
O1767      C1772   1.295       .  A
O1768     Ni1770   1.984       .  S
O1768      C1771   1.295       .  A
Ni1769    Ni1770   2.299       .  S
C1771      C1839   1.498       .  S
C1772      C1807   1.500       .  S
C1773      C1822   1.512       .  S
C1774      C1846   1.515       .  S
O1775     Ni1783   1.844   1_545  S
O1775      C1785   1.245       .  A
O1776     Ni2133   1.844       .  S
O1776      C1786   1.245       .  A
O1777     Ni2483   1.914       .  S
O1777      C1787   1.271       .  A
O1778      C1788   1.269       .  A
O1779      C1788   1.292       .  A
O1780     Ni2484   1.973       .  S
O1780      C1787   1.292       .  A
O1781     Ni2134   1.994       .  S
O1781      C1786   1.296       .  A
O1782     Ni1784   1.992   1_545  S
O1782      C1785   1.295       .  A
Ni1783     O2126   1.844   1_556  S
Ni1783     O2477   1.914       .  S
Ni1783    Ni1784   2.298       .  S
Ni1784     O2480   1.973       .  S
Ni1784     O2131   1.994   1_556  S
C1785      C1823   1.509       .  S
C1786      C1814   1.509       .  S
C1787      C1831   1.520       .  S
C1788      C1806   1.521       .  S
O1789     Ni1797   1.839       .  S
O1789      C1799   1.244       .  A
O1790      C1800   1.244       .  A
O1791      C1801   1.269       .  A
O1792      C1802   1.269       .  A
O1793      C1802   1.292       .  A
O1794     Ni1798   1.970       .  S
O1794      C1801   1.292       .  A
O1795      C1800   1.295       .  A
O1796      C1799   1.294       .  A
C1799      C1847   1.500       .  S
C1800      C1830   1.503       .  S
C1801      C1815   1.515       .  S
C1802      C1838   1.519       .  S
C1803      C1965   1.488       .  S
C1803      C1808   1.402       .  A
C1804      C2052   1.494       .  S
C1804      C1805   1.410       .  A
C1805      C1806   1.399       .  A
C1805      H1810   1.082       .  S
C1807      C1808   1.397       .  A
C1808      H1809   1.082       .  S
C1811      C1992   1.482       .  S
C1811      C1812   1.410       .  A
C1811      C1816   1.400       .  A
C1812      C1945   1.480       .  S
C1812      C1813   1.403       .  A
C1813      C1814   1.404       .  A
C1813      H1818   1.083       .  S
C1814      C1815   1.464       .  A
C1815      C1816   1.402       .  A
C1816      H1817   1.084       .  S
C1819      C2025   1.481       .  S
C1819      C1824   1.406       .  A
C1820      C1932   1.488       .  S
C1820      C1821   1.399       .  A
C1821      C1822   1.401       .  A
C1821      H1826   1.085       .  S
C1823      C1824   1.403       .  A
C1824      H1825   1.084       .  S
C1827      C1912   1.484       .  S
C1827      C1828   1.412       .  A
C1827      C1832   1.405       .  A
C1828      C2005   1.482       .  S
C1828      C1829   1.400       .  A
C1829      C1830   1.402       .  A
C1829      H1834   1.083       .  S
C1830      C1831   1.463       .  A
C1831      C1832   1.404       .  A
C1832      H1833   1.083       .  S
C1835      C2065   1.488       .  S
C1835      C2536   1.423   1_545  A
C1835      C1840   1.402       .  A
C1836      C1892   1.495       .  S
C1836      C2535   1.423       .  A
C1836      C1837   1.409       .  A
C1837      C1838   1.397       .  A
C1837      H1842   1.083       .  S
C1838      C2539   1.457       .  A
C1839      C2538   1.457   1_545  A
C1839      C1840   1.396       .  A
C1840      H1841   1.085       .  S
C1843      C1865   1.482       .  S
C1843      C2544   1.413       .  A
C1843      C1848   1.401       .  A
C1844      C2092   1.482       .  S
C1844      C2543   1.413   1_545  A
C1844      C1845   1.401       .  A
C1845      C1846   1.399       .  A
C1845      H1850   1.085       .  S
C1846      C2547   1.460   1_545  A
C1847      C2546   1.460       .  A
C1847      C1848   1.401       .  A
C1848      H1849   1.084       .  S
C1851      H1852   1.109       .  S
C1851      C1857   1.538       .  S
C1851      C1856   1.539       .  S
C1851      C1855   1.538       .  S
C1853      H1854   1.110       .  S
C1853      C1859   1.544       .  S
C1853      C1858   1.539       .  S
C1853      C1860   1.530       .  S
C1855      C1858   1.379       .  D
C1855      C1925   1.485       .  S
C1856      C1859   1.382       .  D
C1856      C1885   1.501       .  S
C1857      C1860   1.365       .  D
C1857      C1905   1.480       .  S
C1858      C1972   1.497       .  S
C1859      C1872   1.484       .  S
C1860      C1952   1.477       .  S
C1861      C1862   1.403       .  A
C1861      C1866   1.398       .  A
C1861      F1879   1.358       .  S
C1862      C1867   1.473       .  S
C1862      C1863   1.403       .  A
C1863      C1864   1.398       .  A
C1863      F1868   1.358       .  S
C1864      C1865   1.406       .  A
C1864      F1880   1.358       .  S
C1865      C1866   1.407       .  A
C1866      F1869   1.357       .  S
C1867      C1870   1.401       .  A
C1867      C1874   1.404       .  A
C1870      C1871   1.395       .  A
C1870      F1875   1.358       .  S
C1871      C1872   1.406       .  A
C1871      F1877   1.355       .  S
C1872      C1873   1.405       .  A
C1873      C1874   1.401       .  A
C1873      F1876   1.357       .  S
C1874      F1878   1.358       .  S
C1881      C1882   1.408       .  A
C1881      C1886   1.401       .  A
C1881      F1899   1.357       .  S
C1882      C1887   1.493       .  S
C1882      C1883   1.407       .  A
C1883      C1884   1.392       .  A
C1883      F1888   1.358       .  S
C1884      C1885   1.406       .  A
C1884      F1900   1.351       .  S
C1885      C1886   1.412       .  A
C1886      F1889   1.353       .  S
C1887      C1890   1.410       .  A
C1887      C1894   1.408       .  A
C1890      C1891   1.401       .  A
C1890      F1895   1.357       .  S
C1891      C1892   1.410       .  A
C1891      F2597   1.356       .  S
C1892      C1893   1.409       .  A
C1893      C1894   1.391       .  A
C1893      F1896   1.358       .  S
C1894      F1898   1.358       .  S
F1897      C2591   1.356       .  S
C1901      C1902   1.409       .  A
C1901      C1906   1.401       .  A
C1901      F1919   1.358       .  S
C1902      C1907   1.487       .  S
C1902      C1903   1.408       .  A
C1903      C1904   1.397       .  A
C1903      F1908   1.358       .  S
C1904      C1905   1.402       .  A
C1904      F1920   1.356       .  S
C1905      C1906   1.403       .  A
C1906      F1909   1.358       .  S
C1907      C1910   1.408       .  A
C1907      C1914   1.408       .  A
C1910      C1911   1.400       .  A
C1910      F1915   1.358       .  S
C1911      C1912   1.405       .  A
C1911      F1917   1.358       .  S
C1912      C1913   1.404       .  A
C1913      C1914   1.399       .  A
C1913      F1916   1.357       .  S
C1914      F1918   1.358       .  S
C1921      C1922   1.405       .  A
C1921      C1926   1.401       .  A
C1921      F1939   1.358       .  S
C1922      C1927   1.479       .  S
C1922      C1923   1.404       .  A
C1923      C1924   1.397       .  A
C1923      F1928   1.358       .  S
C1924      C1925   1.404       .  A
C1924      F1940   1.357       .  S
C1925      C1926   1.407       .  A
C1926      F1929   1.358       .  S
C1927      C1930   1.404       .  A
C1927      C1934   1.404       .  A
C1930      C1931   1.398       .  A
C1930      F1935   1.358       .  S
C1931      C1932   1.407       .  A
C1931      F1937   1.358       .  S
C1932      C1933   1.408       .  A
C1933      C1934   1.400       .  A
C1933      F1936   1.357       .  S
C1934      F1938   1.358       .  S
C1941      C1942   1.407       .  A
C1941      C1946   1.399       .  A
C1941      F1959   1.358       .  S
C1942      C1947   1.481       .  S
C1942      C1943   1.406       .  A
C1943      C1944   1.399       .  A
C1943      F1948   1.358       .  S
C1944      C1945   1.404       .  A
C1944      F1960   1.358       .  S
C1945      C1946   1.404       .  A
C1946      F1949   1.358       .  S
C1947      C1950   1.406       .  A
C1947      C1954   1.407       .  A
C1950      C1951   1.396       .  A
C1950      F1955   1.358       .  S
C1951      C1952   1.402       .  A
C1951      F1957   1.356       .  S
C1952      C1953   1.403       .  A
C1953      C1954   1.400       .  A
C1953      F1956   1.358       .  S
C1954      F1958   1.358       .  S
C1961      C1962   1.407       .  A
C1961      C1966   1.402       .  A
C1961      F1979   1.358       .  S
C1962      C1967   1.482       .  S
C1962      C1963   1.405       .  A
C1963      C1964   1.393       .  A
C1963      F1968   1.358       .  S
C1964      C1965   1.408       .  A
C1964      F1980   1.358       .  S
C1965      C1966   1.408       .  A
C1967      C1970   1.405       .  A
C1967      C1974   1.403       .  A
C1970      C1971   1.401       .  A
C1970      F1975   1.358       .  S
C1971      C1972   1.412       .  A
C1971      F1977   1.357       .  S
C1972      C1973   1.407       .  A
C1973      C1974   1.393       .  A
C1973      F1976   1.350       .  S
C1974      F1978   1.359       .  S
C1981      C1982   1.409       .  A
C1981      C1986   1.400       .  A
C1981      F1999   1.358       .  S
C1982      C1987   1.489       .  S
C1982      C1983   1.409       .  A
C1983      C1984   1.399       .  A
C1983      F1988   1.358       .  S
C1984      C1985   1.402       .  A
C1984      F2000   1.357       .  S
C1985      C1986   1.402       .  A
C1986      F1989   1.357       .  S
C1987      C1990   1.409       .  A
C1987      C1994   1.409       .  A
C1990      C1991   1.400       .  A
C1990      F1995   1.358       .  S
C1991      C1992   1.404       .  A
C1991      F1997   1.358       .  S
C1992      C1993   1.403       .  A
C1993      C1994   1.399       .  A
C1993      F1996   1.358       .  S
C1994      F1998   1.358       .  S
C2001      C2002   1.405       .  A
C2001      C2006   1.397       .  A
C2001      F2019   1.358       .  S
C2002      C2007   1.479       .  S
C2002      C2003   1.406       .  A
C2003      C2004   1.401       .  A
C2003      F2008   1.358       .  S
C2004      C2005   1.406       .  A
C2004      F2020   1.358       .  S
C2005      C2006   1.404       .  A
C2006      F2009   1.357       .  S
C2007      C2010   1.405       .  A
C2007      C2014   1.406       .  A
C2010      C2011   1.397       .  A
C2010      F2015   1.358       .  S
C2011      C2012   1.402       .  A
C2011      F2017   1.355       .  S
C2012      C2013   1.404       .  A
C2013      C2014   1.401       .  A
C2013      F2016   1.358       .  S
C2014      F2018   1.358       .  S
C2021      C2022   1.402       .  A
C2021      C2026   1.397       .  A
C2021      F2039   1.358       .  S
C2022      C2027   1.471       .  S
C2022      C2023   1.403       .  A
C2023      C2024   1.397       .  A
C2023      F2028   1.358       .  S
C2024      C2025   1.406       .  A
C2024      F2040   1.358       .  S
C2025      C2026   1.407       .  A
C2026      F2029   1.357       .  S
C2027      C2030   1.399       .  A
C2027      C2034   1.404       .  A
C2030      C2031   1.391       .  A
C2030      F2035   1.358       .  S
C2031      C2032   1.404       .  A
C2031      F2037   1.353       .  S
C2032      C2033   1.406       .  A
C2033      C2034   1.402       .  A
C2033      F2036   1.357       .  S
C2034      F2038   1.358       .  S
C2041      C2042   1.409       .  A
C2041      C2046   1.400       .  A
C2041      F2059   1.357       .  S
C2042      C2047   1.493       .  S
C2042      C2043   1.407       .  A
C2043      C2044   1.392       .  A
C2043      F2048   1.358       .  S
C2044      C2045   1.408       .  A
C2044      F2060   1.350       .  S
C2045      C2046   1.411       .  A
C2046      F2049   1.355       .  S
C2047      C2050   1.410       .  A
C2047      C2054   1.410       .  A
C2050      C2051   1.400       .  A
C2050      F2055   1.358       .  S
C2051      C2052   1.410       .  A
C2052      C2053   1.408       .  A
C2053      C2054   1.393       .  A
C2053      F2056   1.358       .  S
C2054      F2058   1.358       .  S
C2061      C2062   1.404       .  A
C2061      C2066   1.392       .  A
C2061      F2079   1.358       .  S
C2062      C2067   1.480       .  S
C2062      C2063   1.406       .  A
C2063      C2064   1.403       .  A
C2063      F2068   1.358       .  S
C2064      C2065   1.409       .  A
C2064      F2080   1.357       .  S
C2065      C2066   1.408       .  A
C2066      F2069   1.358       .  S
C2067      C2070   1.401       .  A
C2067      C2074   1.405       .  A
C2070      C2071   1.392       .  A
C2070      F2075   1.359       .  S
C2071      C2072   1.405       .  A
C2071      F2077   1.348       .  S
C2072      C2073   1.411       .  A
C2073      C2074   1.402       .  A
C2073      F2076   1.357       .  S
C2074      F2078   1.357       .  S
C2081      C2082   1.403       .  A
C2081      C2086   1.399       .  A
C2081      F2099   1.358       .  S
C2082      C2087   1.474       .  S
C2082      C2083   1.402       .  A
C2083      C2084   1.396       .  A
C2083      F2088   1.358       .  S
C2084      C2085   1.407       .  A
C2084      F2100   1.356       .  S
C2085      C2086   1.408       .  A
C2086      F2089   1.357       .  S
C2087      C2090   1.403       .  A
C2087      C2094   1.404       .  A
C2090      C2091   1.396       .  A
C2090      F2095   1.358       .  S
C2091      C2092   1.406       .  A
C2091      F2097   1.358       .  S
C2092      C2093   1.407       .  A
C2093      C2094   1.399       .  A
C2093      F2096   1.358       .  S
C2094      F2098   1.358       .  S
C2101      H2102   1.111       .  S
C2101      C2107   1.543       .  S
C2101      C2106   1.531       .  S
C2101      C2105   1.540       .  S
C2103      H2104   1.108       .  S
C2103      C2109   1.538       .  S
C2103      C2108   1.537       .  S
C2103      C2110   1.539       .  S
C2105      C2108   1.379       .  D
C2105      C2422   1.495       .  S
C2106      C2109   1.368       .  D
C2106      C2362   1.478       .  S
C2107      C2110   1.380       .  D
C2107      C2382   1.483       .  S
C2108      C2435   1.487       .  S
C2109      C2335   1.479       .  S
C2110      C2395   1.500       .  S
O2111     Ni2119   1.832       .  S
O2111      C2121   1.242       .  A
O2112     Ni2469   1.833   1_554  S
O2112      C2122   1.243       .  A
O2113     Ni2119   1.912       .  S
O2113      C2123   1.270       .  A
O2114     Ni2469   1.913   1_554  S
O2114      C2124   1.271       .  A
O2115     Ni2470   1.963   1_554  S
O2115      C2124   1.290       .  A
O2116     Ni2120   1.961       .  S
O2116      C2123   1.290       .  A
O2117     Ni2470   1.985   1_554  S
O2117      C2122   1.295       .  A
O2118     Ni2120   1.984       .  S
O2118      C2121   1.295       .  A
Ni2119     O2462   1.833       .  S
Ni2119     O2464   1.913       .  S
Ni2119    Ni2120   2.299       .  S
Ni2120     O2465   1.963       .  S
Ni2120     O2467   1.985       .  S
C2121      C2189   1.498       .  S
C2122      C2157   1.500       .  S
C2123      C2172   1.512       .  S
C2124      C2196   1.515       .  S
O2125     Ni2133   1.844       .  S
O2125      C2135   1.245       .  A
O2126      C2136   1.245       .  A
O2127      C2137   1.271       .  A
O2128     Ni2483   1.911   1_554  S
O2128      C2138   1.269       .  A
O2129     Ni2484   1.973   1_554  S
O2129      C2138   1.292       .  A
O2130      C2137   1.292       .  A
O2131      C2136   1.296       .  A
O2132     Ni2134   1.992       .  S
O2132      C2135   1.295       .  A
Ni2133     O2478   1.911       .  S
Ni2133    Ni2134   2.298       .  S
Ni2134     O2479   1.973       .  S
C2135      C2173   1.510       .  S
C2136      C2164   1.509       .  S
C2137      C2181   1.520       .  S
C2138      C2156   1.521       .  S
O2139     Ni2147   1.839       .  S
O2139      C2149   1.244       .  A
O2140      C2150   1.244       .  A
O2141      C2151   1.269       .  A
O2142     Ni2497   1.909       .  S
O2142      C2152   1.269       .  A
O2143      C2152   1.292       .  A
O2144     Ni2148   1.970       .  S
O2144      C2151   1.292       .  A
O2145     Ni2498   1.986       .  S
O2145      C2150   1.295       .  A
O2146      C2149   1.294       .  A
Ni2147     O2492   1.909   1_554  S
Ni2148     O2495   1.986   1_554  S
C2149      C2197   1.500       .  S
C2150      C2180   1.503       .  S
C2151      C2165   1.515       .  S
C2152      C2188   1.519       .  S
C2153      C2315   1.488       .  S
C2153      C2158   1.402       .  A
C2154      C2402   1.494       .  S
C2154      C2155   1.410       .  A
C2155      C2156   1.399       .  A
C2155      H2160   1.082       .  S
C2157      C2158   1.397       .  A
C2158      H2159   1.082       .  S
C2161      C2342   1.482       .  S
C2161      C2162   1.410       .  A
C2161      C2166   1.400       .  A
C2162      C2295   1.480       .  S
C2162      C2163   1.403       .  A
C2163      C2164   1.404       .  A
C2163      H2168   1.083       .  S
C2164      C2165   1.464       .  A
C2165      C2166   1.402       .  A
C2166      H2167   1.084       .  S
C2169      C2375   1.481       .  S
C2169      C2174   1.406       .  A
C2170      C2282   1.488       .  S
C2170      C2171   1.399       .  A
C2171      C2172   1.401       .  A
C2171      H2176   1.085       .  S
C2173      C2174   1.403       .  A
C2174      H2175   1.084       .  S
C2177      C2262   1.484       .  S
C2177      C2178   1.412       .  A
C2177      C2182   1.405       .  A
C2178      C2355   1.482       .  S
C2178      C2179   1.400       .  A
C2179      C2180   1.402       .  A
C2179      H2184   1.083       .  S
C2180      C2181   1.463       .  A
C2181      C2182   1.404       .  A
C2182      H2183   1.083       .  S
C2185      C2415   1.488       .  S
C2185      C2190   1.403       .  A
C2186      C2242   1.495       .  S
C2186      C2187   1.409       .  A
C2187      C2188   1.397       .  A
C2187      H2192   1.083       .  S
C2189      C2190   1.396       .  A
C2190      H2191   1.085       .  S
C2193      C2215   1.482       .  S
C2193      C2198   1.401       .  A
C2194      C2442   1.482       .  S
C2194      C2195   1.401       .  A
C2195      C2196   1.399       .  A
C2195      H2200   1.085       .  S
C2197      C2198   1.401       .  A
C2198      H2199   1.084       .  S
C2201      H2202   1.109       .  S
C2201      C2207   1.539       .  S
C2201      C2206   1.539       .  S
C2201      C2205   1.539       .  S
C2203      H2204   1.110       .  S
C2203      C2209   1.544       .  S
C2203      C2208   1.539       .  S
C2203      C2210   1.530       .  S
C2205      C2208   1.379       .  D
C2205      C2275   1.485       .  S
C2206      C2209   1.382       .  D
C2206      C2235   1.501       .  S
C2207      C2210   1.365       .  D
C2207      C2255   1.480       .  S
C2208      C2322   1.497       .  S
C2209      C2222   1.484       .  S
C2210      C2302   1.477       .  S
C2211      C2212   1.403       .  A
C2211      C2216   1.398       .  A
C2211      F2229   1.358       .  S
C2212      C2217   1.473       .  S
C2212      C2213   1.403       .  A
C2213      C2214   1.398       .  A
C2213      F2218   1.358       .  S
C2214      C2215   1.406       .  A
C2214      F2230   1.358       .  S
C2215      C2216   1.407       .  A
C2216      F2219   1.357       .  S
C2217      C2220   1.401       .  A
C2217      C2224   1.404       .  A
C2220      C2221   1.395       .  A
C2220      F2225   1.358       .  S
C2221      C2222   1.406       .  A
C2221      F2227   1.355       .  S
C2222      C2223   1.405       .  A
C2223      C2224   1.401       .  A
C2223      F2226   1.357       .  S
C2224      F2228   1.358       .  S
C2231      C2232   1.408       .  A
C2231      C2236   1.401       .  A
C2231      F2249   1.357       .  S
C2232      C2237   1.493       .  S
C2232      C2233   1.407       .  A
C2233      C2234   1.392       .  A
C2233      F2238   1.358       .  S
C2234      C2235   1.406       .  A
C2234      F2250   1.351       .  S
C2235      C2236   1.412       .  A
C2236      F2239   1.353       .  S
C2237      C2240   1.410       .  A
C2237      C2244   1.408       .  A
C2240      C2241   1.401       .  A
C2240      F2245   1.357       .  S
C2241      C2242   1.410       .  A
C2242      C2243   1.409       .  A
C2243      C2244   1.391       .  A
C2243      F2246   1.358       .  S
C2244      F2248   1.358       .  S
C2251      C2252   1.409       .  A
C2251      C2256   1.401       .  A
C2251      F2269   1.358       .  S
C2252      C2257   1.487       .  S
C2252      C2253   1.408       .  A
C2253      C2254   1.397       .  A
C2253      F2258   1.358       .  S
C2254      C2255   1.402       .  A
C2254      F2270   1.356       .  S
C2255      C2256   1.403       .  A
C2256      F2259   1.358       .  S
C2257      C2260   1.408       .  A
C2257      C2264   1.408       .  A
C2260      C2261   1.400       .  A
C2260      F2265   1.358       .  S
C2261      C2262   1.405       .  A
C2261      F2267   1.358       .  S
C2262      C2263   1.404       .  A
C2263      C2264   1.399       .  A
C2263      F2266   1.357       .  S
C2264      F2268   1.358       .  S
C2271      C2272   1.405       .  A
C2271      C2276   1.401       .  A
C2271      F2289   1.358       .  S
C2272      C2277   1.479       .  S
C2272      C2273   1.404       .  A
C2273      C2274   1.397       .  A
C2273      F2278   1.358       .  S
C2274      C2275   1.404       .  A
C2274      F2290   1.357       .  S
C2275      C2276   1.407       .  A
C2276      F2279   1.358       .  S
C2277      C2280   1.404       .  A
C2277      C2284   1.404       .  A
C2280      C2281   1.398       .  A
C2280      F2285   1.358       .  S
C2281      C2282   1.407       .  A
C2281      F2287   1.358       .  S
C2282      C2283   1.408       .  A
C2283      C2284   1.400       .  A
C2283      F2286   1.357       .  S
C2284      F2288   1.358       .  S
C2291      C2292   1.407       .  A
C2291      C2296   1.399       .  A
C2291      F2309   1.358       .  S
C2292      C2297   1.481       .  S
C2292      C2293   1.406       .  A
C2293      C2294   1.399       .  A
C2293      F2298   1.358       .  S
C2294      C2295   1.404       .  A
C2294      F2310   1.358       .  S
C2295      C2296   1.404       .  A
C2296      F2299   1.358       .  S
C2297      C2300   1.406       .  A
C2297      C2304   1.407       .  A
C2300      C2301   1.396       .  A
C2300      F2305   1.358       .  S
C2301      C2302   1.402       .  A
C2301      F2307   1.356       .  S
C2302      C2303   1.403       .  A
C2303      C2304   1.400       .  A
C2303      F2306   1.358       .  S
C2304      F2308   1.358       .  S
C2311      C2312   1.407       .  A
C2311      C2316   1.402       .  A
C2311      F2329   1.358       .  S
C2312      C2317   1.482       .  S
C2312      C2313   1.405       .  A
C2313      C2314   1.393       .  A
C2313      F2318   1.358       .  S
C2314      C2315   1.408       .  A
C2314      F2330   1.358       .  S
C2315      C2316   1.408       .  A
C2317      C2320   1.405       .  A
C2317      C2324   1.403       .  A
C2320      C2321   1.401       .  A
C2320      F2325   1.358       .  S
C2321      C2322   1.412       .  A
C2321      F2327   1.357       .  S
C2322      C2323   1.407       .  A
C2323      C2324   1.393       .  A
C2323      F2326   1.350       .  S
C2324      F2328   1.359       .  S
C2331      C2332   1.409       .  A
C2331      C2336   1.400       .  A
C2331      F2349   1.358       .  S
C2332      C2337   1.489       .  S
C2332      C2333   1.409       .  A
C2333      C2334   1.399       .  A
C2333      F2338   1.358       .  S
C2334      C2335   1.402       .  A
C2334      F2350   1.357       .  S
C2335      C2336   1.402       .  A
C2336      F2339   1.357       .  S
C2337      C2340   1.409       .  A
C2337      C2344   1.409       .  A
C2340      C2341   1.400       .  A
C2340      F2345   1.358       .  S
C2341      C2342   1.404       .  A
C2341      F2347   1.358       .  S
C2342      C2343   1.403       .  A
C2343      C2344   1.399       .  A
C2343      F2346   1.358       .  S
C2344      F2348   1.358       .  S
C2351      C2352   1.405       .  A
C2351      C2356   1.397       .  A
C2351      F2369   1.358       .  S
C2352      C2357   1.479       .  S
C2352      C2353   1.406       .  A
C2353      C2354   1.401       .  A
C2353      F2358   1.358       .  S
C2354      C2355   1.406       .  A
C2354      F2370   1.358       .  S
C2355      C2356   1.404       .  A
C2356      F2359   1.357       .  S
C2357      C2360   1.405       .  A
C2357      C2364   1.406       .  A
C2360      C2361   1.397       .  A
C2360      F2365   1.358       .  S
C2361      C2362   1.402       .  A
C2361      F2367   1.355       .  S
C2362      C2363   1.404       .  A
C2363      C2364   1.401       .  A
C2363      F2366   1.358       .  S
C2364      F2368   1.358       .  S
C2371      C2372   1.402       .  A
C2371      C2376   1.397       .  A
C2371      F2389   1.358       .  S
C2372      C2377   1.471       .  S
C2372      C2373   1.403       .  A
C2373      C2374   1.397       .  A
C2373      F2378   1.358       .  S
C2374      C2375   1.406       .  A
C2374      F2390   1.358       .  S
C2375      C2376   1.407       .  A
C2376      F2379   1.357       .  S
C2377      C2380   1.399       .  A
C2377      C2384   1.404       .  A
C2380      C2381   1.391       .  A
C2380      F2385   1.358       .  S
C2381      C2382   1.404       .  A
C2381      F2387   1.353       .  S
C2382      C2383   1.406       .  A
C2383      C2384   1.402       .  A
C2383      F2386   1.357       .  S
C2384      F2388   1.358       .  S
C2391      C2392   1.409       .  A
C2391      C2396   1.400       .  A
C2391      F2409   1.357       .  S
C2392      C2397   1.493       .  S
C2392      C2393   1.407       .  A
C2393      C2394   1.392       .  A
C2393      F2398   1.358       .  S
C2394      C2395   1.407       .  A
C2394      F2410   1.350       .  S
C2395      C2396   1.411       .  A
C2396      F2399   1.355       .  S
C2397      C2400   1.410       .  A
C2397      C2404   1.410       .  A
C2400      C2401   1.400       .  A
C2400      F2405   1.358       .  S
C2401      C2402   1.410       .  A
C2402      C2403   1.408       .  A
C2403      C2404   1.393       .  A
C2403      F2406   1.358       .  S
C2404      F2408   1.358       .  S
C2411      C2412   1.404       .  A
C2411      C2416   1.392       .  A
C2411      F2429   1.358       .  S
C2412      C2417   1.480       .  S
C2412      C2413   1.406       .  A
C2413      C2414   1.403       .  A
C2413      F2418   1.358       .  S
C2414      C2415   1.409       .  A
C2414      F2430   1.357       .  S
C2415      C2416   1.408       .  A
C2416      F2419   1.358       .  S
C2417      C2420   1.401       .  A
C2417      C2424   1.405       .  A
C2420      C2421   1.392       .  A
C2420      F2425   1.359       .  S
C2421      C2422   1.406       .  A
C2421      F2427   1.348       .  S
C2422      C2423   1.411       .  A
C2423      C2424   1.402       .  A
C2423      F2426   1.357       .  S
C2424      F2428   1.357       .  S
C2431      C2432   1.403       .  A
C2431      C2436   1.399       .  A
C2431      F2449   1.358       .  S
C2432      C2437   1.474       .  S
C2432      C2433   1.402       .  A
C2433      C2434   1.396       .  A
C2433      F2438   1.358       .  S
C2434      C2435   1.407       .  A
C2434      F2450   1.356       .  S
C2435      C2436   1.408       .  A
C2436      F2439   1.357       .  S
C2437      C2440   1.403       .  A
C2437      C2444   1.404       .  A
C2440      C2441   1.396       .  A
C2440      F2445   1.358       .  S
C2441      C2442   1.406       .  A
C2441      F2447   1.358       .  S
C2442      C2443   1.407       .  A
C2443      C2444   1.400       .  A
C2443      F2446   1.358       .  S
C2444      F2448   1.358       .  S
C2451      H2452   1.111       .  S
C2451      C2457   1.543       .  S
C2451      C2456   1.531       .  S
C2451      C2455   1.540       .  S
C2453      H2454   1.108       .  S
C2453      C2459   1.538       .  S
C2453      C2458   1.537       .  S
C2453      C2460   1.539       .  S
C2455      C2458   1.379       .  D
C2455      C2772   1.495       .  S
C2456      C2459   1.368       .  D
C2456      C2712   1.478       .  S
C2457      C2460   1.380       .  D
C2457      C2732   1.483       .  S
C2458      C2785   1.487       .  S
C2459      C2685   1.479       .  S
C2460      C2745   1.500       .  S
O2461     Ni2469   1.832       .  S
O2461      C2471   1.242       .  A
O2462      C2472   1.243       .  A
O2463     Ni2469   1.912       .  S
O2463      C2473   1.270       .  A
O2464      C2474   1.271       .  A
O2465      C2474   1.290       .  A
O2466     Ni2470   1.961       .  S
O2466      C2473   1.290       .  A
O2467      C2472   1.295       .  A
O2468     Ni2470   1.984       .  S
O2468      C2471   1.295       .  A
Ni2469    Ni2470   2.299       .  S
C2471      C2539   1.498       .  S
C2472      C2507   1.500       .  S
C2473      C2522   1.512       .  S
C2474      C2546   1.515       .  S
O2475     Ni2483   1.844       .  S
O2475      C2485   1.245       .  A
O2476      C2486   1.245       .  A
O2477      C2487   1.271       .  A
O2478      C2488   1.269       .  A
O2479      C2488   1.292       .  A
O2480      C2487   1.292       .  A
O2481      C2486   1.296       .  A
O2482     Ni2484   1.992       .  S
O2482      C2485   1.295       .  A
Ni2483    Ni2484   2.298       .  S
C2485      C2523   1.510       .  S
C2486      C2514   1.509       .  S
C2487      C2531   1.520       .  S
C2488      C2506   1.521       .  S
O2489     Ni2497   1.839       .  S
O2489      C2499   1.244       .  A
O2490      C2500   1.244       .  A
O2491      C2501   1.269       .  A
O2492      C2502   1.269       .  A
O2493      C2502   1.292       .  A
O2494     Ni2498   1.970       .  S
O2494      C2501   1.292       .  A
O2495      C2500   1.295       .  A
O2496      C2499   1.294       .  A
C2499      C2547   1.500       .  S
C2500      C2530   1.503       .  S
C2501      C2515   1.515       .  S
C2502      C2538   1.519       .  S
C2503      C2665   1.488       .  S
C2503      C2508   1.402       .  A
C2504      C2752   1.494       .  S
C2504      C2505   1.410       .  A
C2505      C2506   1.399       .  A
C2505      H2510   1.082       .  S
C2507      C2508   1.397       .  A
C2508      H2509   1.082       .  S
C2511      C2692   1.482       .  S
C2511      C2512   1.410       .  A
C2511      C2516   1.400       .  A
C2512      C2645   1.480       .  S
C2512      C2513   1.403       .  A
C2513      C2514   1.404       .  A
C2513      H2518   1.083       .  S
C2514      C2515   1.464       .  A
C2515      C2516   1.402       .  A
C2516      H2517   1.084       .  S
C2519      C2725   1.481       .  S
C2519      C2524   1.406       .  A
C2520      C2632   1.488       .  S
C2520      C2521   1.399       .  A
C2521      C2522   1.401       .  A
C2521      H2526   1.085       .  S
C2523      C2524   1.403       .  A
C2524      H2525   1.084       .  S
C2527      C2612   1.484       .  S
C2527      C2528   1.412       .  A
C2527      C2532   1.404       .  A
C2528      C2705   1.481       .  S
C2528      C2529   1.400       .  A
C2529      C2530   1.402       .  A
C2529      H2534   1.083       .  S
C2530      C2531   1.463       .  A
C2531      C2532   1.404       .  A
C2532      H2533   1.083       .  S
C2535      C2765   1.488       .  S
C2535      C2540   1.403       .  A
C2536      C2592   1.495       .  S
C2536      C2537   1.409       .  A
C2537      C2538   1.397       .  A
C2537      H2542   1.083       .  S
C2539      C2540   1.396       .  A
C2540      H2541   1.085       .  S
C2543      C2565   1.482       .  S
C2543      C2548   1.401       .  A
C2544      C2792   1.482       .  S
C2544      C2545   1.401       .  A
C2545      C2546   1.399       .  A
C2545      H2550   1.085       .  S
C2547      C2548   1.401       .  A
C2548      H2549   1.084       .  S
C2551      H2552   1.109       .  S
C2551      C2557   1.539       .  S
C2551      C2556   1.539       .  S
C2551      C2555   1.539       .  S
C2553      H2554   1.110       .  S
C2553      C2559   1.544       .  S
C2553      C2558   1.540       .  S
C2553      C2560   1.530       .  S
C2555      C2558   1.379       .  D
C2555      C2625   1.485       .  S
C2556      C2559   1.382       .  D
C2556      C2585   1.501       .  S
C2557      C2560   1.366       .  D
C2557      C2605   1.480       .  S
C2558      C2672   1.497       .  S
C2559      C2572   1.484       .  S
C2560      C2652   1.477       .  S
C2561      C2562   1.403       .  A
C2561      C2566   1.398       .  A
C2561      F2579   1.358       .  S
C2562      C2567   1.473       .  S
C2562      C2563   1.403       .  A
C2563      C2564   1.398       .  A
C2563      F2568   1.358       .  S
C2564      C2565   1.406       .  A
C2564      F2580   1.358       .  S
C2565      C2566   1.407       .  A
C2566      F2569   1.357       .  S
C2567      C2570   1.401       .  A
C2567      C2574   1.404       .  A
C2570      C2571   1.395       .  A
C2570      F2575   1.358       .  S
C2571      C2572   1.406       .  A
C2571      F2577   1.355       .  S
C2572      C2573   1.405       .  A
C2573      C2574   1.401       .  A
C2573      F2576   1.357       .  S
C2574      F2578   1.358       .  S
C2581      C2582   1.408       .  A
C2581      C2586   1.401       .  A
C2581      F2599   1.357       .  S
C2582      C2587   1.493       .  S
C2582      C2583   1.407       .  A
C2583      C2584   1.392       .  A
C2583      F2588   1.358       .  S
C2584      C2585   1.406       .  A
C2584      F2600   1.351       .  S
C2585      C2586   1.412       .  A
C2586      F2589   1.353       .  S
C2587      C2590   1.410       .  A
C2587      C2594   1.408       .  A
C2590      C2591   1.401       .  A
C2590      F2595   1.357       .  S
C2591      C2592   1.410       .  A
C2592      C2593   1.409       .  A
C2593      C2594   1.391       .  A
C2593      F2596   1.358       .  S
C2594      F2598   1.358       .  S
C2601      C2602   1.409       .  A
C2601      C2606   1.401       .  A
C2601      F2619   1.358       .  S
C2602      C2607   1.487       .  S
C2602      C2603   1.408       .  A
C2603      C2604   1.397       .  A
C2603      F2608   1.358       .  S
C2604      C2605   1.402       .  A
C2604      F2620   1.357       .  S
C2605      C2606   1.403       .  A
C2606      F2609   1.358       .  S
C2607      C2610   1.408       .  A
C2607      C2614   1.408       .  A
C2610      C2611   1.400       .  A
C2610      F2615   1.358       .  S
C2611      C2612   1.405       .  A
C2611      F2617   1.358       .  S
C2612      C2613   1.404       .  A
C2613      C2614   1.399       .  A
C2613      F2616   1.357       .  S
C2614      F2618   1.358       .  S
C2621      C2622   1.405       .  A
C2621      C2626   1.401       .  A
C2621      F2639   1.358       .  S
C2622      C2627   1.479       .  S
C2622      C2623   1.404       .  A
C2623      C2624   1.397       .  A
C2623      F2628   1.358       .  S
C2624      C2625   1.404       .  A
C2624      F2640   1.356       .  S
C2625      C2626   1.408       .  A
C2626      F2629   1.358       .  S
C2627      C2630   1.404       .  A
C2627      C2634   1.404       .  A
C2630      C2631   1.398       .  A
C2630      F2635   1.358       .  S
C2631      C2632   1.407       .  A
C2631      F2637   1.358       .  S
C2632      C2633   1.408       .  A
C2633      C2634   1.400       .  A
C2633      F2636   1.357       .  S
C2634      F2638   1.358       .  S
C2641      C2642   1.407       .  A
C2641      C2646   1.399       .  A
C2641      F2659   1.358       .  S
C2642      C2647   1.481       .  S
C2642      C2643   1.406       .  A
C2643      C2644   1.399       .  A
C2643      F2648   1.358       .  S
C2644      C2645   1.404       .  A
C2644      F2660   1.358       .  S
C2645      C2646   1.404       .  A
C2646      F2649   1.358       .  S
C2647      C2650   1.406       .  A
C2647      C2654   1.407       .  A
C2650      C2651   1.396       .  A
C2650      F2655   1.358       .  S
C2651      C2652   1.402       .  A
C2651      F2657   1.356       .  S
C2652      C2653   1.403       .  A
C2653      C2654   1.400       .  A
C2653      F2656   1.358       .  S
C2654      F2658   1.358       .  S
C2661      C2662   1.407       .  A
C2661      C2666   1.402       .  A
C2661      F2679   1.358       .  S
C2662      C2667   1.482       .  S
C2662      C2663   1.405       .  A
C2663      C2664   1.393       .  A
C2663      F2668   1.358       .  S
C2664      C2665   1.408       .  A
C2664      F2680   1.358       .  S
C2665      C2666   1.408       .  A
C2667      C2670   1.405       .  A
C2667      C2674   1.403       .  A
C2670      C2671   1.401       .  A
C2670      F2675   1.358       .  S
C2671      C2672   1.412       .  A
C2671      F2677   1.357       .  S
C2672      C2673   1.407       .  A
C2673      C2674   1.393       .  A
C2673      F2676   1.350       .  S
C2674      F2678   1.359       .  S
C2681      C2682   1.409       .  A
C2681      C2686   1.400       .  A
C2681      F2699   1.358       .  S
C2682      C2687   1.489       .  S
C2682      C2683   1.409       .  A
C2683      C2684   1.399       .  A
C2683      F2688   1.358       .  S
C2684      C2685   1.402       .  A
C2684      F2700   1.357       .  S
C2685      C2686   1.402       .  A
C2686      F2689   1.357       .  S
C2687      C2690   1.409       .  A
C2687      C2694   1.409       .  A
C2690      C2691   1.400       .  A
C2690      F2695   1.358       .  S
C2691      C2692   1.404       .  A
C2691      F2697   1.358       .  S
C2692      C2693   1.403       .  A
C2693      C2694   1.399       .  A
C2693      F2696   1.358       .  S
C2694      F2698   1.358       .  S
C2701      C2702   1.405       .  A
C2701      C2706   1.397       .  A
C2701      F2719   1.358       .  S
C2702      C2707   1.479       .  S
C2702      C2703   1.406       .  A
C2703      C2704   1.401       .  A
C2703      F2708   1.358       .  S
C2704      C2705   1.406       .  A
C2704      F2720   1.358       .  S
C2705      C2706   1.404       .  A
C2706      F2709   1.357       .  S
C2707      C2710   1.405       .  A
C2707      C2714   1.406       .  A
C2710      C2711   1.397       .  A
C2710      F2715   1.358       .  S
C2711      C2712   1.402       .  A
C2711      F2717   1.355       .  S
C2712      C2713   1.404       .  A
C2713      C2714   1.401       .  A
C2713      F2716   1.358       .  S
C2714      F2718   1.358       .  S
C2721      C2722   1.402       .  A
C2721      C2726   1.397       .  A
C2721      F2739   1.358       .  S
C2722      C2727   1.470       .  S
C2722      C2723   1.403       .  A
C2723      C2724   1.397       .  A
C2723      F2728   1.358       .  S
C2724      C2725   1.406       .  A
C2724      F2740   1.358       .  S
C2725      C2726   1.407       .  A
C2726      F2729   1.357       .  S
C2727      C2730   1.399       .  A
C2727      C2734   1.404       .  A
C2730      C2731   1.391       .  A
C2730      F2735   1.358       .  S
C2731      C2732   1.404       .  A
C2731      F2737   1.353       .  S
C2732      C2733   1.406       .  A
C2733      C2734   1.402       .  A
C2733      F2736   1.357       .  S
C2734      F2738   1.358       .  S
C2741      C2742   1.409       .  A
C2741      C2746   1.400       .  A
C2741      F2759   1.357       .  S
C2742      C2747   1.493       .  S
C2742      C2743   1.407       .  A
C2743      C2744   1.392       .  A
C2743      F2748   1.358       .  S
C2744      C2745   1.407       .  A
C2744      F2760   1.350       .  S
C2745      C2746   1.411       .  A
C2746      F2749   1.355       .  S
C2747      C2750   1.410       .  A
C2747      C2754   1.410       .  A
C2750      C2751   1.400       .  A
C2750      F2755   1.358       .  S
C2751      C2752   1.410       .  A
C2752      C2753   1.408       .  A
C2753      C2754   1.393       .  A
C2753      F2756   1.358       .  S
C2754      F2758   1.358       .  S
C2761      C2762   1.404       .  A
C2761      C2766   1.392       .  A
C2761      F2779   1.358       .  S
C2762      C2767   1.480       .  S
C2762      C2763   1.406       .  A
C2763      C2764   1.403       .  A
C2763      F2768   1.358       .  S
C2764      C2765   1.409       .  A
C2764      F2780   1.357       .  S
C2765      C2766   1.408       .  A
C2766      F2769   1.358       .  S
C2767      C2770   1.402       .  A
C2767      C2774   1.405       .  A
C2770      C2771   1.392       .  A
C2770      F2775   1.359       .  S
C2771      C2772   1.406       .  A
C2771      F2777   1.348       .  S
C2772      C2773   1.411       .  A
C2773      C2774   1.402       .  A
C2773      F2776   1.357       .  S
C2774      F2778   1.357       .  S
C2781      C2782   1.403       .  A
C2781      C2786   1.399       .  A
C2781      F2799   1.358       .  S
C2782      C2787   1.474       .  S
C2782      C2783   1.402       .  A
C2783      C2784   1.396       .  A
C2783      F2788   1.358       .  S
C2784      C2785   1.406       .  A
C2784      F2800   1.356       .  S
C2785      C2786   1.408       .  A
C2786      F2789   1.358       .  S
C2787      C2790   1.403       .  A
C2787      C2794   1.404       .  A
C2790      C2791   1.395       .  A
C2790      F2795   1.358       .  S
C2791      C2792   1.406       .  A
C2791      F2797   1.358       .  S
C2792      C2793   1.407       .  A
C2793      C2794   1.399       .  A
C2793      F2796   1.358       .  S
C2794      F2798   1.358       .  S
