geometry optimzed in LAMMPS
_audit_creation_date              2020-11-30 
_audit_creation_method            'lammps2cif' 
_symmetry_space_group_name_H-M    'P1' 
_symmetry_Int_Tables_number       1 
_symmetry_cell_setting            triclinic 
loop_ 
_symmetry_equiv_pos_as_xyz 
  x,y,z 
_cell_length_a                    35.9953911 
_cell_length_b                    36.05667727652321 
_cell_length_c                    35.99406936983523 
_cell_angle_alpha                 90.38210044578383 
_cell_angle_beta                  90.20956907907467 
_cell_angle_gamma                 89.92134356097729 
loop_ 
_atom_site_label 
_atom_site_type_symbol 
_atom_site_fract_x 
_atom_site_fract_y 
_atom_site_fract_z 
_atom_site_charge 
O1          O  0.47928502  0.99484265  0.06288792    -0.71200
O2          O  0.46683453  0.99396981  0.17386366    -0.72200
O3          O  0.47163966  0.05038744  0.11889955    -0.60800
O4          O  0.47527877  0.44206010  0.12454403    -0.69200
O5          O  0.02917913  0.43437355  0.13087143    -0.68800
O6          O  0.03017377  0.04653485  0.12838514    -0.60000
O7          O  0.02367784  0.49205490  0.18575955    -0.72500
O8          O  0.03484799  0.48912770  0.07472733    -0.71300
Cu9        Cu  0.47098236  0.99459772  0.11814716     1.04600
Cu10       Cu  0.03131877  0.49045345  0.13044662     1.04300
C11         C  0.00661040  0.98872355  0.05386496     0.95000
C12         C  0.99130576  0.49110972  0.20018005     0.94100
C13         C  0.99915067  0.06374877  0.12603873     0.86300
C14         C  0.99856224  0.41671737  0.12695353     0.92500
O15         O  0.05866713  0.29599717  0.12600777    -0.71200
O16         O  0.05857935  0.18443309  0.12417279    -0.72200
O17         O  0.05793809  0.24058375  0.06914320    -0.60800
O18         O  0.05923343  0.23921971  0.18072553    -0.69200
O19         O  0.49851663  0.24533342  0.17788284    -0.68800
O20         O  0.50138893  0.24447635  0.06565843    -0.60000
O21         O  0.49995615  0.18884315  0.12168789    -0.72500
O22         O  0.49912949  0.30050912  0.12180083    -0.71300
Cu23       Cu  0.06070935  0.24011906  0.12496558     1.04600
Cu24       Cu  0.49753676  0.24478340  0.12168748     1.04300
C25         C  0.53003427  0.31782813  0.12326446     0.95000
C26         C  0.53083926  0.17122844  0.12165647     0.94100
C27         C  0.53276058  0.24483534  0.04898443     0.86300
C28         C  0.52917563  0.24357692  0.19587292     0.92500
O29         O  0.19128587  0.44773000  0.12883638    -0.71200
O30         O  0.20352632  0.05642693  0.13076615    -0.72200
O31         O  0.19708278  0.00295822  0.07281698    -0.60800
O32         O  0.19957913  0.50636501  0.18207862    -0.69200
O33         O  0.26034459  0.49556304  0.18200238    -0.68800
O34         O  0.25835446  0.99594740  0.07149609    -0.60000
O35         O  0.26485185  0.05010801  0.12879113    -0.72500
O36         O  0.25234057  0.43933278  0.12667831    -0.71300
Cu37       Cu  0.19560640  0.00119046  0.12842893     1.04600
Cu38       Cu  0.26199955  0.49416351  0.12602777     1.04300
C39         C  0.21943335  0.42613317  0.12807248     0.95000
C40         C  0.23602416  0.07070623  0.13017481     0.94100
C41         C  0.22836771  0.49677223  0.05286421     0.86300
C42         C  0.22909833  0.99551961  0.20126073     0.92500
O43         O  0.20312144  0.30737946  0.12797352    -0.71200
O44         O  0.18932643  0.19689355  0.13169073    -0.72200
O45         O  0.19856746  0.25457567  0.18548599    -0.60800
O46         O  0.19410720  0.25007661  0.07387925    -0.69200
O47         O  0.25538292  0.24352946  0.07197447    -0.68800
O48         O  0.25941394  0.24442511  0.18371191    -0.60000
O49         O  0.25040792  0.18907054  0.12844153    -0.72500
O50         O  0.26428222  0.29944189  0.12744630    -0.71300
Cu51       Cu  0.19412931  0.25245998  0.12981137     1.04600
Cu52       Cu  0.25950105  0.24385652  0.12780548     1.04300
C53         C  0.23595467  0.32082515  0.12752817     0.95000
C54         C  0.21767402  0.17557471  0.13051275     0.94100
C55         C  0.22962348  0.25002530  0.20212607     0.86300
C56         C  0.22408123  0.24638243  0.05530087     0.92500
O57         O  0.03213526  0.03989863  0.87930950    -0.71200
O58         O  0.01888320  0.43025607  0.87720621    -0.72200
O59         O  0.03054289  0.48575802  0.82278407    -0.60800
O60         O  0.01915093  0.98536227  0.93438467    -0.69200
O61         O  0.46469715  0.99505581  0.92265275    -0.68800
O62         O  0.48320366  0.50045039  0.81476340    -0.60000
O63         O  0.47843321  0.44237509  0.86851107    -0.72500
O64         O  0.47703770  0.05147104  0.86967247    -0.71300
Cu65       Cu  0.02713530  0.48525266  0.87873799     1.04600
Cu66       Cu  0.46877683  0.99647868  0.86701479     1.04300
C67         C  0.50964838  0.06517666  0.87260360     0.95000
C68         C  0.50605625  0.42022896  0.86690806     0.94100
C69         C  0.50933579  0.99383305  0.79754147     0.86300
C70         C  0.52332985  0.49026182  0.94192079     0.92500
O71         O  0.02555487  0.23238182  0.81925306    -0.71200
O72         O  0.02688642  0.23667332  0.93128077    -0.72200
O73         O  0.01949611  0.17970291  0.87686849    -0.60800
O74         O  0.03303453  0.29013135  0.87375132    -0.69200
O75         O  0.48474779  0.30255296  0.87135397    -0.68800
O76         O  0.46567652  0.19250720  0.87253417    -0.60000
O77         O  0.47505401  0.24848938  0.92762951    -0.72500
O78         O  0.47429191  0.24715858  0.81674449    -0.71300
Cu79       Cu  0.02841271  0.23447395  0.87528231     1.04600
Cu80       Cu  0.47284292  0.24800239  0.87211710     1.04300
C81         C  0.50395700  0.24023346  0.79875857     0.95000
C82         C  0.50546276  0.24463721  0.94548095     0.94100
C83         C  0.49332158  0.17023727  0.87345463     0.86300
C84         C  0.51819323  0.31439876  0.86966095     0.92500
O85         O  0.22275327  0.49373825  0.93377587    -0.71200
O86         O  0.21464172  0.48597621  0.82315667    -0.72200
O87         O  0.22619117  0.43538214  0.88108677    -0.60800
O88         O  0.20858948  0.04582259  0.87826184    -0.69200
O89         O  0.26967935  0.05332524  0.87492654    -0.68800
O90         O  0.28707373  0.44295568  0.87512888    -0.60000
O91         O  0.27173858  0.99701205  0.81949789    -0.72500
O92         O  0.28146794  0.99966688  0.93105233    -0.71300
Cu93       Cu  0.21673144  0.49001390  0.87859527     1.04600
Cu94       Cu  0.27884495  0.99860633  0.87508407     1.04300
C95         C  0.25447301  0.49737163  0.94941073     0.95000
C96         C  0.23998826  0.99085620  0.80462746     0.94100
C97         C  0.25889629  0.42179387  0.87851386     0.86300
C98         C  0.23696139  0.06699284  0.87648617     0.92500
O99         O  0.28068087  0.24653127  0.93318661    -0.71200
O100        O  0.27714570  0.24960743  0.82133866    -0.72200
O101        O  0.27330088  0.30306009  0.87911900    -0.60800
O102        O  0.28450562  0.19239677  0.87541947    -0.69200
O103        O  0.22328696  0.18593338  0.87879697    -0.68800
O104        O  0.21197461  0.29649113  0.87924504    -0.60000
O105        O  0.21617216  0.24049977  0.82313540    -0.72500
O106        O  0.21926020  0.24165524  0.93495516    -0.71300
Cu107      Cu  0.28107191  0.24808019  0.87722477     1.04600
Cu108      Cu  0.21553647  0.24096393  0.87908492     1.04300
C109        C  0.25056649  0.24412461  0.95170192     0.95000
C110        C  0.24603185  0.24516482  0.80468088     0.94100
C111        C  0.24073075  0.31718198  0.87949657     0.86300
C112        C  0.25574571  0.17172181  0.87671080     0.92500
O113        O  0.50634776  0.04363601  0.42941122    -0.71200
O114        O  0.50955421  0.04802024  0.31750284    -0.72200
O115        O  0.45235914  0.05221647  0.37237345    -0.60800
O116        O  0.06301951  0.03463009  0.38028763    -0.69200
O117        O  0.05446250  0.46938043  0.37612122    -0.68800
O118        O  0.44763218  0.48706801  0.36889531    -0.60000
O119        O  0.99965358  0.48091540  0.32003892    -0.72500
O120        O  0.99911975  0.47795469  0.43175023    -0.71300
Cu121      Cu  0.50794854  0.04811477  0.37351053     1.04600
Cu122      Cu  0.99912389  0.47729444  0.37581922     1.04300
C123        C  0.50328596  0.01214297  0.44529720     0.95000
C124        C  0.00651753  0.01330984  0.30369421     0.94100
C125        C  0.43148286  0.02362280  0.37187501     0.86300
C126        C  0.07679103  0.00202851  0.37843599     0.92500
O127        O  0.45680919  0.20772305  0.36545806    -0.71200
O128        O  0.06800566  0.22068962  0.37172920    -0.72200
O129        O  0.01241145  0.20351467  0.42430525    -0.60800
O130        O  0.51288391  0.22310720  0.31202474    -0.69200
O131        O  0.50290398  0.28322703  0.32135267    -0.68800
O132        O  0.00570753  0.26383369  0.43503451    -0.60000
O133        O  0.05914682  0.28117222  0.37969701    -0.72500
O134        O  0.44976479  0.26792012  0.37678401    -0.71300
Cu135      Cu  0.01296648  0.21087859  0.36940603     1.04600
Cu136      Cu  0.50429511  0.27662243  0.37719816     1.04300
C137        C  0.43584821  0.23588997  0.37095371     0.95000
C138        C  0.08092261  0.25349123  0.37613579     0.94100
C139        C  0.50951414  0.23154411  0.44400293     0.86300
C140        C  0.00802934  0.25396151  0.30205301     0.92500
O141        O  0.25263978  0.46560490  0.32381226    -0.71200
O142        O  0.25192188  0.48079584  0.43418869    -0.72200
O143        O  0.19644682  0.47921864  0.37812575    -0.60800
O144        O  0.30777349  0.46788748  0.37979489    -0.69200
O145        O  0.31288931  0.03767357  0.37635071    -0.68800
O146        O  0.20214378  0.04973152  0.37425124    -0.60000
O147        O  0.25672681  0.04653147  0.43098862    -0.72500
O148        O  0.25903710  0.04133995  0.31979493    -0.71300
Cu149      Cu  0.25197594  0.47124031  0.37927364     1.04600
Cu150      Cu  0.25788848  0.04594457  0.37527953     1.04300
C151        C  0.25477354  0.01026437  0.30319459     0.95000
C152        C  0.25365106  0.01686143  0.44987092     0.94100
C153        C  0.18139073  0.02109547  0.37619867     0.86300
C154        C  0.32688424  0.00508339  0.37647927     0.92500
O155        O  0.20778523  0.21094446  0.38220960    -0.71200
O156        O  0.31761522  0.22415023  0.37932282    -0.72200
O157        O  0.26333338  0.22692372  0.43648815    -0.60800
O158        O  0.26218455  0.20992062  0.32530863    -0.69200
O159        O  0.25239050  0.27022860  0.31771192    -0.68800
O160        O  0.25670036  0.28740341  0.42746187    -0.60000
O161        O  0.31042676  0.28453913  0.36995138    -0.72500
O162        O  0.19944667  0.27152683  0.37517640    -0.71300
Cu163      Cu  0.26300348  0.21587944  0.38121256     1.04600
Cu164      Cu  0.25453086  0.28055267  0.37229532     1.04300
C165        C  0.18624958  0.23882907  0.37892105     0.95000
C166        C  0.33144604  0.25618162  0.37381196     0.94100
C167        C  0.26033323  0.26000756  0.44938703     0.86300
C168        C  0.25644526  0.23769052  0.30412407     0.92500
O169        O  0.99817108  0.49522492  0.68182793    -0.71200
O170        O  0.00100739  0.50199709  0.57042195    -0.72200
O171        O  0.05561129  0.49851573  0.62764529    -0.60800
O172        O  0.44388090  0.50033549  0.61944058    -0.69200
O173        O  0.44431826  0.06011891  0.62408435    -0.68800
O174        O  0.05625438  0.05736504  0.63372548    -0.60000
O175        O  0.50126169  0.06522268  0.56973505    -0.72500
O176        O  0.49847676  0.05691519  0.68117981    -0.71300
Cu177      Cu  0.99952490  0.49670638  0.62597308     1.04600
Cu178      Cu  0.50000385  0.06326459  0.62562320     1.04300
C179        C  0.99644902  0.02163809  0.70134711     0.95000
C180        C  0.50162395  0.03576982  0.54981858     0.94100
C181        C  0.07419949  0.02686446  0.63127265     0.86300
C182        C  0.42724828  0.02912735  0.62251376     0.92500
O183        O  0.45622541  0.25963850  0.62813995    -0.71200
O184        O  0.06816353  0.26012476  0.63085850    -0.72200
O185        O  0.01165146  0.26868556  0.57601070    -0.60800
O186        O  0.51338907  0.25251669  0.68179788    -0.69200
O187        O  0.51532513  0.19147892  0.67354834    -0.68800
O188        O  0.01149357  0.20792831  0.56574017    -0.60000
O189        O  0.06830880  0.19936541  0.62055822    -0.72500
O190        O  0.45726887  0.19860695  0.61974006    -0.71300
Cu191      Cu  0.01179136  0.26201372  0.63098509     1.04600
Cu192      Cu  0.51285131  0.19748168  0.61758886     1.04300
C193        C  0.43915626  0.22868267  0.62444283     0.95000
C194        C  0.08585238  0.22964752  0.62576995     0.94100
C195        C  0.51049169  0.24215038  0.55028388     0.86300
C196        C  0.01297705  0.21946816  0.69874471     0.92500
O197        O  0.25411038  0.03355740  0.68067277    -0.71200
O198        O  0.24905389  0.02538363  0.56949989    -0.72200
O199        O  0.19496636  0.02912643  0.62742897    -0.60800
O200        O  0.30702161  0.02941279  0.62299301    -0.69200
O201        O  0.30551911  0.46924452  0.62761822    -0.68800
O202        O  0.19390384  0.46950175  0.62906231    -0.60000
O203        O  0.24889803  0.46508394  0.57277801    -0.72500
O204        O  0.25048679  0.47417822  0.68404312    -0.71300
Cu205      Cu  0.25115911  0.03151262  0.62500899     1.04600
Cu206      Cu  0.24963625  0.46738048  0.62853940     1.04300
C207        C  0.25395180  0.00425570  0.70035174     0.95000
C208        C  0.24961457  0.99343792  0.55387478     0.94100
C209        C  0.17752933  0.99825099  0.62915406     0.86300
C210        C  0.32472943  0.99872034  0.62518741     0.92500
O211        O  0.26186385  0.27953066  0.56905814    -0.71200
O212        O  0.26429858  0.29259170  0.68106597    -0.72200
O213        O  0.31826955  0.28652511  0.62424891    -0.60800
O214        O  0.20721839  0.28744442  0.62590427    -0.69200
O215        O  0.20618705  0.22613993  0.63089064    -0.68800
O216        O  0.31859025  0.22548763  0.63191226    -0.60000
O217        O  0.26166859  0.23138988  0.68685481    -0.72500
O218        O  0.26271541  0.21848739  0.57658229    -0.71300
Cu219      Cu  0.26288049  0.28867232  0.62482485     1.04600
Cu220      Cu  0.26229387  0.22325859  0.63182362     1.04300
C221        C  0.26229288  0.24662366  0.55535484     0.95000
C222        C  0.26304840  0.26370274  0.70148377     0.94100
C223        C  0.33602132  0.25615594  0.62787542     0.86300
C224        C  0.18908323  0.25720043  0.62835237     0.92500
C225        C  0.39818868  0.22691081  0.62566290    -0.14700
C226        C  0.37698978  0.25748599  0.62731285    -0.29900
H227        H  0.38518332  0.19974120  0.62462196     0.14300
H228        H  0.39002990  0.28465383  0.62738104     0.14900
C229        C  0.12688093  0.22837519  0.62608350    -0.14700
C230        C  0.14804812  0.25891366  0.62825459    -0.29900
H231        H  0.14003381  0.20128936  0.62408503     0.14300
H232        H  0.13498515  0.28608281  0.62936071     0.14900
C233        C  0.36581900  0.99808679  0.62414962    -0.14700
C234        C  0.38617192  0.02929743  0.62273803    -0.29900
H235        H  0.37811036  0.47236585  0.62498951     0.14300
H236        H  0.37232178  0.05609434  0.62240311     0.14900
C237        C  0.13640585  0.99716520  0.62991457    -0.14700
C238        C  0.11533493  0.02794148  0.63191675    -0.29900
H239        H  0.12169254  0.47225832  0.62773879     0.14300
H240        H  0.12860975  0.05496799  0.63359966     0.14900
C241        C  0.26084827  0.26736365  0.48984571    -0.14700
C242        C  0.26235397  0.23996483  0.51482057    -0.29900
H243        H  0.25945800  0.29603214  0.49924585     0.14300
H244        H  0.26339170  0.21131744  0.50529647     0.14900
C245        C  0.24980429  0.99008547  0.51293769    -0.14700
C246        C  0.25282707  0.01980399  0.49079867    -0.29900
H247        H  0.24680010  0.46202090  0.50086845     0.14300
H248        H  0.25488400  0.04737965  0.50302123     0.14900
C249        C  0.51025795  0.22336616  0.48412900    -0.14700
C250        C  0.50940019  0.25010202  0.51013371    -0.29900
H251        H  0.51191693  0.19448019  0.49241697     0.14300
H252        H  0.00922289  0.27810166  0.50494181     0.14900
C253        C  0.39521929  0.23129239  0.37099816    -0.14700
C254        C  0.37204333  0.26062758  0.37218686    -0.29900
H255        H  0.38417948  0.20324884  0.37011915     0.14300
H256        H  0.38307558  0.28867654  0.37188304     0.14900
C257        C  0.12124131  0.26018218  0.37704068    -0.14700
C258        C  0.14588989  0.23237177  0.37889307    -0.29900
H259        H  0.13079610  0.28873891  0.37657222     0.14300
H260        H  0.13626016  0.20387090  0.38019322     0.14900
C261        C  0.50246633  0.00932051  0.48623852    -0.14700
C262        C  0.50249028  0.03914107  0.50887958    -0.29900
H263        H  0.99946527  0.47862690  0.50393363     0.14300
H264        H  0.50314735  0.06683061  0.49714981     0.14900
C265        C  0.36743922  0.99995341  0.37541673    -0.14700
C266        C  0.39092974  0.02872972  0.37290063    -0.29900
H267        H  0.38043826  0.46480669  0.37665008     0.14300
H268        H  0.38022179  0.05690552  0.37206050     0.14900
C269        C  0.14079184  0.02591570  0.37662223    -0.14700
C270        C  0.11737490  0.99695350  0.37835499    -0.29900
H271        H  0.12995519  0.05402795  0.37541563     0.14300
H272        H  0.12695680  0.46087840  0.37842213     0.14900
C273        C  0.24441603  0.24390752  0.76378639    -0.14700
C274        C  0.26368234  0.26738373  0.74235606    -0.29900
H275        H  0.22593588  0.22373194  0.75090793     0.14300
H276        H  0.27945815  0.28986971  0.75496524     0.14900
C277        C  0.23646214  0.98738177  0.76396669    -0.14700
C278        C  0.25712342  0.00783110  0.74098477    -0.29900
H279        H  0.22271153  0.46366639  0.75169977     0.14300
H280        H  0.27552111  0.02901914  0.75224758     0.14900
C281        C  0.26447426  0.38133366  0.87907684    -0.14700
C282        C  0.23570489  0.35768061  0.88010265    -0.29900
H283        H  0.29275931  0.37083311  0.87789019     0.14300
H284        H  0.20743503  0.36826006  0.88090053     0.14900
C285        C  0.23165445  0.10755662  0.87659516    -0.14700
C286        C  0.26056415  0.13113417  0.87582622    -0.29900
H287        H  0.20342068  0.11819659  0.87779326     0.14300
H288        H  0.28877399  0.12042240  0.87466358     0.14900
C289        C  0.99389936  0.23854207  0.76118079    -0.14700
C290        C  0.01310671  0.21492891  0.73947183    -0.29900
H291        H  0.48718113  0.26479124  0.74602968     0.14300
H292        H  0.02842702  0.19203404  0.75165777     0.14900
C293        C  0.99218963  0.01925269  0.74202644    -0.14700
C294        C  0.00685276  0.99142907  0.76192571    -0.29900
H295        H  0.48189906  0.04432187  0.75176135     0.14300
H296        H  0.02297307  0.47256194  0.74780670     0.14900
C297        C  0.49873140  0.37998156  0.86713279    -0.14700
C298        C  0.52599342  0.35454604  0.86801316    -0.29900
H299        H  0.46989435  0.37111438  0.86745440     0.14300
H300        H  0.03831488  0.36238751  0.87532273     0.14900
C301        C  0.51514035  0.10559350  0.87381334    -0.14700
C302        C  0.48677321  0.12988440  0.87332289    -0.29900
H303        H  0.03800513  0.11194147  0.87956706     0.14300
H304        H  0.45826379  0.12002844  0.87228531     0.14900
C305        C  0.23094723  0.25265364  0.24291375    -0.14700
C306        C  0.25452829  0.23243326  0.26354677    -0.29900
H307        H  0.21134505  0.27123714  0.25647341     0.14300
H308        H  0.27182600  0.21131683  0.25060281     0.14900
C309        C  0.25251695  0.24435714  0.99275513    -0.14700
C310        C  0.22202136  0.24545267  0.01425389    -0.29900
H311        H  0.27990208  0.24429548  0.00558496     0.14300
H312        H  0.19464325  0.24620875  0.00143320     0.14900
C313        C  0.25629528  0.00918404  0.26241773    -0.14700
C314        C  0.22901606  0.99384828  0.24213608    -0.29900
H315        H  0.27847673  0.02423605  0.24876779     0.14300
H316        H  0.21066096  0.52602271  0.25258491     0.14900
C317        C  0.22681873  0.49641684  0.01191748    -0.14700
C318        C  0.25724406  0.49804902  0.99039272    -0.29900
H319        H  0.19780150  0.00075006  0.00112558     0.14300
H320        H  0.28466582  0.49979627  0.00302712     0.14900
C321        C  0.21343266  0.38565164  0.12862315    -0.14700
C322        C  0.24174917  0.36132683  0.12717446    -0.29900
H323        H  0.18499695  0.37567975  0.13005912     0.14300
H324        H  0.27017474  0.37133741  0.12583474     0.14900
C325        C  0.24096661  0.11127219  0.13067611    -0.14700
C326        C  0.21219643  0.13505181  0.13135371    -0.29900
H327        H  0.26922427  0.12180847  0.12988524     0.14300
H328        H  0.18391046  0.12460903  0.13219692     0.14900
C329        C  0.02988748  0.23861064  0.23949631    -0.14700
C330        C  0.00761680  0.25906783  0.26142302    -0.29900
H331        H  0.05044158  0.22036890  0.25196486     0.14300
H332        H  0.49009313  0.28285833  0.24698651     0.14900
C333        C  0.53471662  0.24444847  0.00795007    -0.14700
C334        C  0.50416661  0.24567403  0.98649295    -0.29900
H335        H  0.05411378  0.23852113  0.99689524     0.14300
H336        H  0.47696988  0.24759021  0.99939666     0.14900
C337        C  0.98731307  0.49121456  0.24091691    -0.14700
C338        C  0.00904716  0.51240426  0.26275778    -0.29900
H339        H  0.54001194  0.47335212  0.24724402     0.14300
H340        H  0.02721821  0.03523363  0.25045492     0.14900
C341        C  0.98208023  0.48839990  0.98933627    -0.14700
C342        C  0.01110203  0.98781460  0.01307257    -0.29900
H343        H  0.55589693  0.48567674  0.99364485     0.14300
H344        H  0.03921363  0.98649830  0.00221662     0.14900
C345        C  0.99785481  0.37569141  0.12629128    -0.14700
C346        C  0.02890519  0.35490773  0.12681953    -0.29900
H347        H  0.47304934  0.36816391  0.12310224     0.14300
H348        H  0.05593001  0.36832707  0.12789904     0.14900
C349        C  0.02879547  0.12577684  0.12548119    -0.14700
C350        C  0.99790759  0.10481161  0.12545765    -0.29900
H351        H  0.05589789  0.11244883  0.12574289     0.14300
H352        H  0.47356302  0.12284514  0.12020200     0.14900
O353        O  0.47591566  0.49716124  0.06782379    -0.71200
O354        O  0.48668236  0.49946788  0.17885375    -0.72200
O355        O  0.48893416  0.55382060  0.12212358    -0.60800
O356        O  0.47462346  0.93925273  0.11791310    -0.69200
O357        O  0.03090251  0.93447094  0.13124447    -0.68800
O358        O  0.02902713  0.54632371  0.12948504    -0.60000
O359        O  0.02567324  0.99283419  0.18558391    -0.72500
O360        O  0.03565161  0.98874761  0.07435474    -0.71300
Cu361      Cu  0.47949892  0.49838961  0.12350012     1.04600
Cu362      Cu  0.03276210  0.99064288  0.13011175     1.04300
C363        C  0.00602202  0.48915036  0.05394409     0.95000
C364        C  0.99339637  0.99163596  0.20020876     0.94100
C365        C  0.99812195  0.56372881  0.12709541     0.86300
C366        C  0.00029521  0.91669572  0.12775847     0.92500
O367        O  0.05963265  0.79545070  0.12951870    -0.71200
O368        O  0.05841337  0.68390190  0.12925909    -0.72200
O369        O  0.05895324  0.73921600  0.07332518    -0.60800
O370        O  0.05861763  0.73948645  0.18531027    -0.69200
O371        O  0.48740630  0.75089224  0.17931698    -0.68800
O372        O  0.49309936  0.74877113  0.06711042    -0.60000
O373        O  0.48134105  0.69498776  0.12307938    -0.72500
O374        O  0.49747690  0.80431504  0.12308549    -0.71300
Cu375      Cu  0.06104485  0.73954220  0.12936775     1.04600
Cu376      Cu  0.48772865  0.75008475  0.12303589     1.04300
C377        C  0.52999224  0.81813648  0.12588896     0.95000
C378        C  0.50901055  0.67288279  0.12315409     0.94100
C379        C  0.52485683  0.74521141  0.05154735     0.86300
C380        C  0.51713428  0.74480082  0.19791322     0.92500
O381        O  0.19207828  0.94582480  0.12593512    -0.71200
O382        O  0.20617821  0.55772193  0.12421723    -0.72200
O383        O  0.19802298  0.50023837  0.07082654    -0.60800
O384        O  0.19818639  0.99837717  0.18404009    -0.69200
O385        O  0.25973474  0.99401044  0.18341154    -0.68800
O386        O  0.25935319  0.49369188  0.07007058    -0.60000
O387        O  0.26732765  0.54958745  0.12539880    -0.72500
O388        O  0.25345588  0.93955160  0.12604531    -0.71300
Cu389      Cu  0.19663959  0.50318561  0.12648518     1.04600
Cu390      Cu  0.26127574  0.99468759  0.12743624     1.04300
C391        C  0.22096636  0.92527588  0.12536972     0.95000
C392        C  0.23906041  0.57100711  0.12463543     0.94100
C393        C  0.22727711  0.99972959  0.05458337     0.86300
C394        C  0.23022725  0.50234459  0.19953712     0.92500
O395        O  0.20695688  0.80703866  0.12303943    -0.71200
O396        O  0.19326070  0.69695212  0.12706168    -0.72200
O397        O  0.20057306  0.75504470  0.18056486    -0.60800
O398        O  0.19933263  0.74950639  0.06955012    -0.69200
O399        O  0.26070096  0.74333242  0.06872739    -0.68800
O400        O  0.26146648  0.74498860  0.18100399    -0.60000
O401        O  0.25444762  0.68926617  0.12524756    -0.72500
O402        O  0.26816995  0.79950279  0.12439389    -0.71300
Cu403      Cu  0.19793319  0.75234415  0.12506009     1.04600
Cu404      Cu  0.26339488  0.74398899  0.12484506     1.04300
C405        C  0.23971079  0.82066410  0.12355945     0.95000
C406        C  0.22168644  0.67574521  0.12627125     0.94100
C407        C  0.23103488  0.75098302  0.19830786     0.86300
C408        C  0.22960078  0.74577351  0.05156199     0.92500
O409        O  0.03118799  0.54079842  0.87988817    -0.71200
O410        O  0.01753389  0.92968883  0.87839246    -0.72200
O411        O  0.03052628  0.98392635  0.82315044    -0.60800
O412        O  0.01936702  0.48532568  0.93424872    -0.69200
O413        O  0.49128149  0.49452132  0.92692661    -0.68800
O414        O  0.47714512  0.99809872  0.81182414    -0.60000
O415        O  0.46480414  0.94066743  0.86502967    -0.72500
O416        O  0.49472113  0.55167793  0.87330337    -0.71300
Cu417      Cu  0.02696139  0.98441656  0.87901092     1.04600
Cu418      Cu  0.48477825  0.49749464  0.87101681     1.04300
C419        C  0.52740578  0.56507685  0.87082817     0.95000
C420        C  0.49324719  0.91982121  0.86913411     0.94100
C421        C  0.51248942  0.49560460  0.79525182     0.86300
C422        C  0.49330505  0.99257400  0.94357836     0.92500
O423        O  0.02052078  0.73384177  0.82263711    -0.71200
O424        O  0.02594797  0.73583174  0.93477790    -0.72200
O425        O  0.01670437  0.67998800  0.87949856    -0.60800
O426        O  0.03010418  0.79015841  0.87792416    -0.69200
O427        O  0.48259459  0.79987042  0.87029927    -0.68800
O428        O  0.47661133  0.68870902  0.87193359    -0.60000
O429        O  0.47432117  0.74566611  0.92659832    -0.72500
O430        O  0.48446837  0.74227363  0.81561088    -0.71300
Cu431      Cu  0.02547680  0.73467794  0.87863980     1.04600
Cu432      Cu  0.47734861  0.74422663  0.87091689     1.04300
C433        C  0.51678273  0.74191007  0.80106636     0.95000
C434        C  0.50329462  0.74358695  0.94702710     0.94100
C435        C  0.50632647  0.66941231  0.87365856     0.86300
C436        C  0.51425780  0.81553399  0.87409628     0.92500
O437        O  0.22031977  0.99353208  0.93560752    -0.71200
O438        O  0.21113472  0.98691253  0.82470573    -0.72200
O439        O  0.22316348  0.93545561  0.88209696    -0.60800
O440        O  0.21174429  0.54559852  0.87566293    -0.69200
O441        O  0.27282724  0.55327787  0.87265251    -0.68800
O442        O  0.28397080  0.94324547  0.87564330    -0.60000
O443        O  0.27527628  0.49613213  0.81810861    -0.72500
O444        O  0.28392539  0.50004362  0.92986894    -0.71300
Cu445      Cu  0.21366455  0.99022428  0.88035659     1.04600
Cu446      Cu  0.28195143  0.49841881  0.87377445     1.04300
C447        C  0.25221908  0.99727584  0.95089367     0.95000
C448        C  0.24357995  0.48972919  0.80322210     0.94100
C449        C  0.25588170  0.92198428  0.87899727     0.86300
C450        C  0.24003751  0.56685605  0.87357603     0.92500
O451        O  0.28364647  0.74606178  0.92807377    -0.71200
O452        O  0.27388525  0.75209796  0.81675054    -0.72200
O453        O  0.27190232  0.80370929  0.87605660    -0.60800
O454        O  0.28553667  0.69331776  0.86882193    -0.69200
O455        O  0.22472408  0.68553814  0.87500981    -0.68800
O456        O  0.21081194  0.79582135  0.87880664    -0.60000
O457        O  0.21329608  0.74149795  0.82126415    -0.72500
O458        O  0.22248461  0.73989821  0.93239284    -0.71300
Cu459      Cu  0.28091500  0.74899296  0.87223334     1.04600
Cu460      Cu  0.21572503  0.74040358  0.87701556     1.04300
C461        C  0.25442418  0.74280031  0.94780747     0.95000
C462        C  0.24202485  0.74770313  0.80157457     0.94100
C463        C  0.23909912  0.81712450  0.87829877     0.86300
C464        C  0.25732084  0.67199225  0.87124871     0.92500
O465        O  0.50690120  0.54338754  0.42790221    -0.71200
O466        O  0.50587585  0.54709594  0.31589877    -0.72200
O467        O  0.45124208  0.54847931  0.37223467    -0.60800
O468        O  0.06492230  0.52995300  0.37970933    -0.69200
O469        O  0.05571256  0.97359389  0.37638559    -0.68800
O470        O  0.44545978  0.99104152  0.37079756    -0.60000
O471        O  0.00095337  0.98238644  0.31987755    -0.72500
O472        O  0.99936109  0.97814786  0.43129731    -0.71300
Cu473      Cu  0.50680818  0.54743456  0.37194623     1.04600
Cu474      Cu  0.99996830  0.97825613  0.37551654     1.04300
C475        C  0.50439657  0.51204386  0.44416244     0.95000
C476        C  0.00664971  0.51142610  0.30361291     0.94100
C477        C  0.43193465  0.51884788  0.37078218     0.86300
C478        C  0.07701115  0.49664247  0.37792018     0.92500
O479        O  0.44908061  0.71733137  0.36837574    -0.71200
O480        O  0.06148003  0.72387143  0.37549579    -0.72200
O481        O  0.00588024  0.70875202  0.42907589    -0.60800
O482        O  0.50481521  0.73037246  0.31474327    -0.69200
O483        O  0.49707718  0.79095822  0.32291966    -0.68800
O484        O  0.99846638  0.76931799  0.43765300    -0.60000
O485        O  0.05222527  0.78449745  0.38164399    -0.72500
O486        O  0.44310450  0.77791695  0.37820949    -0.71300
Cu487      Cu  0.00652191  0.71372709  0.37383361     1.04600
Cu488      Cu  0.49800736  0.78511873  0.37890593     1.04300
C489        C  0.42865941  0.74600694  0.37298114     0.95000
C490        C  0.07417321  0.75690210  0.37842474     0.94100
C491        C  0.50185427  0.74086192  0.44638747     0.86300
C492        C  0.00196870  0.75418043  0.30495553     0.92500
O493        O  0.24979377  0.98046334  0.32158084    -0.71200
O494        O  0.25118050  0.98529838  0.43358520    -0.72200
O495        O  0.19551934  0.98865331  0.37795325    -0.60800
O496        O  0.30602247  0.97649604  0.37720815    -0.69200
O497        O  0.31321360  0.52848031  0.37080723    -0.68800
O498        O  0.20302007  0.54012191  0.37216810    -0.60000
O499        O  0.25925272  0.54142961  0.42705905    -0.72500
O500        O  0.25608330  0.52657165  0.31599673    -0.71300
Cu501      Cu  0.25042105  0.98055773  0.37768020     1.04600
Cu502      Cu  0.25818147  0.53625709  0.37121762     1.04300
C503        C  0.25412290  0.49370857  0.30253701     0.95000
C504        C  0.25531750  0.51331537  0.44811666     0.94100
C505        C  0.18231815  0.51167565  0.37530512     0.86300
C506        C  0.32799024  0.49655079  0.37510561     0.92500
O507        O  0.20191790  0.71660953  0.37956715    -0.71200
O508        O  0.31110850  0.73363065  0.37949226    -0.72200
O509        O  0.25515464  0.73622973  0.43471431    -0.60800
O510        O  0.25832312  0.71553391  0.32436749    -0.69200
O511        O  0.24670064  0.77515120  0.31441547    -0.68800
O512        O  0.24734914  0.79624925  0.42384619    -0.60000
O513        O  0.30262608  0.79341170  0.36772686    -0.72500
O514        O  0.19203492  0.77673667  0.37088404    -0.71300
Cu515      Cu  0.25693236  0.72343673  0.37995631     1.04600
Cu516      Cu  0.24685342  0.78750393  0.36879797     1.04300
C517        C  0.17967915  0.74384059  0.37559726     0.95000
C518        C  0.32425302  0.76580772  0.37322720     0.94100
C519        C  0.25102845  0.76954954  0.44662442     0.86300
C520        C  0.25263628  0.74238811  0.30204965     0.92500
O521        O  0.99902395  0.99211146  0.68167380    -0.71200
O522        O  0.00233404  0.99991935  0.57024571    -0.72200
O523        O  0.05682730  0.99607727  0.62780238    -0.60800
O524        O  0.44543733  0.99863656  0.62094171    -0.69200
O525        O  0.44185335  0.56183006  0.62200610    -0.68800
O526        O  0.05549577  0.55986763  0.63293773    -0.60000
O527        O  0.49900862  0.56700808  0.56785378    -0.72500
O528        O  0.49550353  0.56032593  0.67978279    -0.71300
Cu529      Cu  0.00075494  0.99395583  0.62578115     1.04600
Cu530      Cu  0.49732310  0.56598503  0.62392433     1.04300
C531        C  0.99625476  0.52481452  0.70145604     0.95000
C532        C  0.50020731  0.53727271  0.54834509     0.94100
C533        C  0.07318957  0.52924188  0.63062091     0.86300
C534        C  0.42527691  0.53058927  0.62065196     0.92500
O535        O  0.44576594  0.76874075  0.63082271    -0.71200
O536        O  0.05789255  0.76795873  0.63405475    -0.72200
O537        O  0.00084277  0.77641025  0.57987266    -0.60800
O538        O  0.50334979  0.75987522  0.68464518    -0.69200
O539        O  0.50017277  0.69904218  0.67509589    -0.68800
O540        O  0.00142549  0.71571074  0.56931817    -0.60000
O541        O  0.05868163  0.70728822  0.62315434    -0.72500
O542        O  0.44565659  0.70817516  0.61929976    -0.71300
Cu543      Cu  0.00160123  0.76906741  0.63498397     1.04600
Cu544      Cu  0.50098250  0.70587459  0.61935751     1.04300
C545        C  0.42813309  0.73835711  0.62515622     0.95000
C546        C  0.07585999  0.73779036  0.62821768     0.94100
C547        C  0.50091047  0.75140525  0.55269833     0.86300
C548        C  0.00453614  0.72530960  0.70221370     0.92500
O549        O  0.25244715  0.53551372  0.67912969    -0.71200
O550        O  0.24821481  0.52642706  0.56790014    -0.72200
O551        O  0.19371401  0.53092640  0.62556099    -0.60800
O552        O  0.30557987  0.53048291  0.62179779    -0.69200
O553        O  0.30716271  0.96813708  0.62833704    -0.68800
O554        O  0.19540463  0.96765897  0.62995705    -0.60000
O555        O  0.25033145  0.96399577  0.57341645    -0.72500
O556        O  0.25198773  0.97218236  0.68508805    -0.71300
Cu557      Cu  0.24985518  0.53299979  0.62343829     1.04600
Cu558      Cu  0.25120249  0.96585662  0.62935510     1.04300
C559        C  0.25243441  0.50636421  0.69904732     0.95000
C560        C  0.24872171  0.49423686  0.55281242     0.94100
C561        C  0.17617809  0.50014974  0.62779756     0.86300
C562        C  0.32315850  0.49974174  0.62425950     0.92500
O563        O  0.25105281  0.79017705  0.56672243    -0.71200
O564        O  0.25341180  0.80151500  0.67918078    -0.72200
O565        O  0.30741677  0.79680278  0.62231012    -0.60800
O566        O  0.19636787  0.79706303  0.62390263    -0.69200
O567        O  0.19581423  0.73570036  0.62834884    -0.68800
O568        O  0.30792214  0.73564315  0.62899868    -0.60000
O569        O  0.25141151  0.74017810  0.68372092    -0.72500
O570        O  0.25204676  0.72906887  0.57374718    -0.71300
Cu571      Cu  0.25199894  0.79858954  0.62277014     1.04600
Cu572      Cu  0.25178971  0.73306633  0.62887066     1.04300
C573        C  0.25159505  0.75735978  0.55276476     0.95000
C574        C  0.25265438  0.77216058  0.69899454     0.94100
C575        C  0.32524968  0.76646119  0.62575512     0.86300
C576        C  0.17849578  0.76667559  0.62642092     0.92500
C577        C  0.38718651  0.73715275  0.62535188    -0.14700
C578        C  0.36620310  0.76786539  0.62612918    -0.29900
H579        H  0.37397841  0.71009644  0.62400515     0.14300
H580        H  0.37937728  0.79495868  0.62641239     0.14900
C581        C  0.11680711  0.73713578  0.62732031    -0.14700
C582        C  0.13751207  0.76802089  0.62737546    -0.29900
H583        H  0.13027927  0.71017140  0.62592662     0.14300
H584        H  0.12411946  0.79504698  0.62787967     0.14900
C585        C  0.36419216  0.49906278  0.62325592    -0.14700
C586        C  0.38428281  0.53032278  0.62076224    -0.29900
H587        H  0.37961335  0.97128002  0.62501919     0.14300
H588        H  0.37023802  0.55699187  0.61956622     0.14900
C589        C  0.13510974  0.49924405  0.62874246    -0.14700
C590        C  0.11427379  0.53013102  0.63083917    -0.29900
H591        H  0.12313406  0.97011520  0.62866993     0.14300
H592        H  0.12770105  0.55709502  0.63230697     0.14900
C593        C  0.25045430  0.77778157  0.48694608    -0.14700
C594        C  0.25196586  0.75070047  0.51225933    -0.29900
H595        H  0.24851326  0.80655035  0.49590410     0.14300
H596        H  0.25350113  0.72198869  0.50300052     0.14900
C597        C  0.24946742  0.48997112  0.51204568    -0.14700
C598        C  0.25430510  0.51865291  0.48884338    -0.29900
H599        H  0.24817051  0.96245183  0.50080218     0.14300
H600        H  0.25745716  0.54660244  0.49988803     0.14900
C601        C  0.50203181  0.73296110  0.48656349    -0.14700
C602        C  0.50043524  0.75966381  0.51257390    -0.29900
H603        H  0.50375116  0.70409669  0.49491249     0.14300
H604        H  0.99830778  0.78550924  0.50812067     0.14900
C605        C  0.38807476  0.74179167  0.37259668    -0.14700
C606        C  0.36478912  0.77101717  0.37249078    -0.29900
H607        H  0.37709033  0.71371988  0.37221093     0.14300
H608        H  0.37560709  0.79912698  0.37160673     0.14900
C609        C  0.11440431  0.76402878  0.37768758    -0.14700
C610        C  0.13948169  0.73655008  0.37652814    -0.29900
H611        H  0.12356999  0.79272011  0.37817360     0.14300
H612        H  0.13038698  0.70784242  0.37687884     0.14900
C613        C  0.50324593  0.50980278  0.48517043    -0.14700
C614        C  0.50167280  0.53997522  0.50734128    -0.29900
H615        H  0.99866213  0.97776364  0.50334230     0.14300
H616        H  0.50146982  0.56747453  0.49515671     0.14900
C617        C  0.36873784  0.49250290  0.37443572    -0.14700
C618        C  0.39119068  0.52205043  0.37137797    -0.29900
H619        H  0.37815330  0.97178414  0.37639521     0.14300
H620        H  0.37939844  0.54976534  0.36989312     0.14900
C621        C  0.14186452  0.51737146  0.37583780    -0.14700
C622        C  0.11734526  0.48944206  0.37767480    -0.29900
H623        H  0.13199142  0.54583532  0.37450703     0.14300
H624        H  0.12815258  0.96880354  0.37910718     0.14900
C625        C  0.23831416  0.74833104  0.76089989    -0.14700
C626        C  0.25403834  0.77467486  0.73990665    -0.29900
H627        H  0.22144488  0.72686904  0.74789517     0.14300
H628        H  0.26813050  0.79803599  0.75291979     0.14900
C629        C  0.24012475  0.48579568  0.76271538    -0.14700
C630        C  0.25569806  0.51020633  0.73965741    -0.29900
H631        H  0.21543384  0.96880699  0.75267659     0.14300
H632        H  0.27005105  0.53432905  0.75091349     0.14900
C633        C  0.26173778  0.88157307  0.87879848    -0.14700
C634        C  0.23333349  0.85752013  0.88009853    -0.29900
H635        H  0.29009864  0.87142626  0.87669297     0.14300
H636        H  0.20495537  0.86766842  0.88193441     0.14900
C637        C  0.23439780  0.60740489  0.87268108    -0.14700
C638        C  0.26286682  0.63141336  0.87018482    -0.29900
H639        H  0.20609526  0.61772547  0.87473092     0.14300
H640        H  0.29116074  0.62109875  0.86799233     0.14900
C641        C  0.98681981  0.74181048  0.76586006    -0.14700
C642        C  0.00617311  0.71973735  0.74277916    -0.29900
H643        H  0.54002833  0.76344901  0.74914785     0.14300
H644        H  0.02272317  0.69707104  0.75374649     0.14900
C645        C  0.99273672  0.52240802  0.74227341    -0.14700
C646        C  0.00649487  0.49373759  0.76168684    -0.29900
H647        H  0.48453149  0.54922541  0.75194046     0.14300
H648        H  0.02445529  0.97085542  0.74853063     0.14900
C649        C  0.48861082  0.87913606  0.86896056    -0.14700
C650        C  0.51766117  0.85624762  0.87409232    -0.29900
H651        H  0.46090479  0.86786972  0.86472014     0.14300
H652        H  0.03576225  0.86208905  0.88018708     0.14900
C653        C  0.53251283  0.60570046  0.87191045    -0.14700
C654        C  0.50308415  0.62872692  0.87311915    -0.29900
H655        H  0.03588925  0.61278087  0.88075094     0.14300
H656        H  0.47509821  0.61738395  0.87315797     0.14900
C657        C  0.23065159  0.75505952  0.23901040    -0.14700
C658        C  0.25312862  0.73575202  0.26158195    -0.29900
H659        H  0.21029659  0.77396182  0.25091808     0.14300
H660        H  0.27120793  0.71432614  0.25033851     0.14900
C661        C  0.25777717  0.74290227  0.98875156    -0.14700
C662        C  0.22763674  0.74430080  0.01064163    -0.29900
H663        H  0.28540736  0.74292632  0.00102659     0.14300
H664        H  0.20012066  0.74505106  0.99811388     0.14900
C665        C  0.25386847  0.48794046  0.26206629    -0.14700
C666        C  0.23068252  0.50707941  0.24018436    -0.29900
H667        H  0.27139765  0.46632173  0.25031668     0.14300
H668        H  0.20486432  0.98229811  0.25590444     0.14900
C669        C  0.22531580  0.99985239  0.01366113    -0.14700
C670        C  0.25550373  0.99857218  0.99181151    -0.29900
H671        H  0.19943442  0.49540941  0.99910797     0.14300
H672        H  0.28312626  0.99840126  0.00412048     0.14900
C673        C  0.21614863  0.88476235  0.12410709    -0.14700
C674        C  0.24504750  0.86116243  0.12360114    -0.29900
H675        H  0.18791501  0.87411684  0.12397770     0.14300
H676        H  0.27330738  0.87172671  0.12384954     0.14900
C677        C  0.24477059  0.61140280  0.12450732    -0.14700
C678        C  0.21618468  0.63533443  0.12629825    -0.29900
H679        H  0.27313201  0.62162352  0.12333799     0.14300
H680        H  0.18784420  0.62507708  0.12764731     0.14900
C681        C  0.02788219  0.74006752  0.24361531    -0.14700
C682        C  0.00253778  0.75817865  0.26424040    -0.29900
H683        H  0.04983609  0.72445608  0.25724669     0.14300
H684        H  0.48745492  0.79204799  0.24877104     0.14900
C685        C  0.52844105  0.74433244  0.01077718    -0.14700
C686        C  0.49902476  0.74485293  0.98777757    -0.29900
H687        H  0.05491669  0.73687596  0.00054592     0.14300
H688        H  0.47109269  0.74638915  0.99904181     0.14900
C689        C  0.98951405  0.99154823  0.24093593    -0.14700
C690        C  0.00928604  0.01451372  0.26284045    -0.29900
H691        H  0.47078188  0.97640001  0.24716291     0.14300
H692        H  0.02849614  0.53166663  0.25028023     0.14900
C693        C  0.98207842  0.98895140  0.98946843    -0.14700
C694        C  0.01093182  0.48814175  0.01317286    -0.29900
H695        H  0.45997106  0.99407060  0.99479797     0.14300
H696        H  0.03914544  0.48733482  0.00254196     0.14900
C697        C  0.99952141  0.87565317  0.12780199    -0.14700
C698        C  0.03042508  0.85467675  0.12894141    -0.29900
H699        H  0.47696263  0.86866952  0.11879668     0.14300
H700        H  0.05753497  0.86792716  0.12990722     0.14900
C701        C  0.02812221  0.62552061  0.12954504    -0.14700
C702        C  0.99713021  0.60479794  0.12740520    -0.29900
H703        H  0.05509074  0.61198875  0.13090213     0.14300
H704        H  0.55769991  0.61640393  0.11939538     0.14900
O705        O  0.97426270  0.98949056  0.06845287    -0.71200
O706        O  0.96430089  0.98973870  0.17987124    -0.72200
O707        O  0.96866689  0.04570040  0.12422616    -0.60800
O708        O  0.96795374  0.43429316  0.12342058    -0.69200
O709        O  0.53617504  0.43564790  0.11777546    -0.68800
O710        O  0.53307617  0.05160840  0.12417163    -0.60000
O711        O  0.54734675  0.48951190  0.17375035    -0.72500
O712        O  0.53690544  0.49062168  0.06183334    -0.71300
Cu713      Cu  0.96710042  0.98980163  0.12398277     1.04600
Cu714      Cu  0.54461765  0.49003274  0.11759944     1.04300
C715        C  0.51189720  0.99429833  0.04891737     0.95000
C716        C  0.51851150  0.49453840  0.19382400     0.94100
C717        C  0.50197630  0.06857872  0.12138161     0.86300
C718        C  0.50405533  0.42132063  0.12158252     0.92500
O719        O  0.56075867  0.30004415  0.12452620    -0.71200
O720        O  0.56162627  0.18876022  0.12186704    -0.72200
O721        O  0.56301626  0.24525324  0.06755368    -0.60800
O722        O  0.56017268  0.24278003  0.17880660    -0.69200
O723        O  0.99759150  0.24188110  0.18156949    -0.68800
O724        O  0.99629647  0.23983802  0.06953903    -0.60000
O725        O  0.99696880  0.18450432  0.12603273    -0.72500
O726        O  0.99702525  0.29651169  0.12521414    -0.71300
Cu727      Cu  0.56349223  0.24432303  0.12326450     1.04600
Cu728      Cu  0.99477859  0.24067481  0.12557550     1.04300
C729        C  0.02799351  0.31387379  0.12591336     0.95000
C730        C  0.02784355  0.16683708  0.12515912     0.94100
C731        C  0.02697632  0.24009528  0.05170331     0.86300
C732        C  0.02873675  0.24049258  0.19868835     0.92500
O733        O  0.68125000  0.44354811  0.12544476    -0.71200
O734        O  0.69404946  0.05363418  0.12650393    -0.72200
O735        O  0.68531571  0.99920609  0.06967775    -0.60800
O736        O  0.69023805  0.49854333  0.18131117    -0.69200
O737        O  0.75166491  0.49383245  0.17828939    -0.68800
O738        O  0.74648214  0.99225715  0.06622990    -0.60000
O739        O  0.75524631  0.04759217  0.12175979    -0.72500
O740        O  0.74253084  0.43669328  0.12380758    -0.71300
Cu741      Cu  0.68651049  0.99841566  0.12562906     1.04600
Cu742      Cu  0.75084403  0.49189774  0.12242464     1.04300
C743        C  0.70991039  0.42271193  0.12496740     0.95000
C744        C  0.72637253  0.06805223  0.12415789     0.94100
C745        C  0.71477607  0.49484900  0.05035104     0.86300
C746        C  0.72388535  0.99468822  0.19712996     0.92500
O747        O  0.69444724  0.30447959  0.12739392    -0.71200
O748        O  0.67958409  0.19419240  0.12890539    -0.72200
O749        O  0.69133601  0.25046982  0.18405252    -0.60800
O750        O  0.68298610  0.24884402  0.07221292    -0.69200
O751        O  0.74412375  0.24205804  0.06840992    -0.68800
O752        O  0.75202643  0.24024279  0.18005407    -0.60000
O753        O  0.74049529  0.18622064  0.12362249    -0.72500
O754        O  0.75552387  0.29631105  0.12485557    -0.71300
Cu755      Cu  0.68492355  0.24972325  0.12830882     1.04600
Cu756      Cu  0.75013129  0.24087985  0.12408542     1.04300
C757        C  0.72731460  0.31777960  0.12604973     0.95000
C758        C  0.70777695  0.17280493  0.12627134     0.94100
C759        C  0.72295593  0.24573511  0.19962471     0.86300
C760        C  0.71240958  0.24564314  0.05266733     0.92500
O761        O  0.53812632  0.04411730  0.87441787    -0.71200
O762        O  0.53927950  0.43275000  0.86559984    -0.72200
O763        O  0.54368829  0.48894534  0.81077540    -0.60800
O764        O  0.52577209  0.98972005  0.92949445    -0.69200
O765        O  0.95816009  0.99193284  0.92793579    -0.68800
O766        O  0.96990133  0.49555951  0.81675696    -0.60000
O767        O  0.95809889  0.43742672  0.86944219    -0.72500
O768        O  0.97114624  0.04799394  0.87464564    -0.71300
Cu769      Cu  0.54981235  0.48773825  0.86617067     1.04600
Cu770      Cu  0.96193443  0.99332327  0.87217605     1.04300
C771        C  0.00392110  0.06131875  0.87735689     0.95000
C772        C  0.98649140  0.41639761  0.87286167     0.94100
C773        C  0.00221579  0.98993697  0.80255270     0.86300
C774        C  0.98698359  0.48810024  0.94855791     0.92500
O775        O  0.53460015  0.23398560  0.81573679    -0.71200
O776        O  0.53610409  0.23975194  0.92811248    -0.72200
O777        O  0.52653478  0.18260633  0.87409597    -0.60800
O778        O  0.54542560  0.29170053  0.86942348    -0.69200
O779        O  0.97187351  0.29780582  0.87560748    -0.68800
O780        O  0.95830452  0.18744742  0.87559384    -0.60000
O781        O  0.96554643  0.24293724  0.93151884    -0.72500
O782        O  0.96471331  0.24270007  0.81990191    -0.71300
Cu783      Cu  0.53783280  0.23664349  0.87188247     1.04600
Cu784      Cu  0.96298979  0.24294097  0.87567311     1.04300
C785        C  0.99482892  0.23726775  0.80203042     0.95000
C786        C  0.99633266  0.24011916  0.94903679     0.94100
C787        C  0.98669901  0.16619635  0.87640366     0.86300
C788        C  0.00460989  0.31139572  0.87440595     0.92500
O789        O  0.70930091  0.49458499  0.93010826    -0.71200
O790        O  0.70483839  0.49140951  0.81847956    -0.72200
O791        O  0.71393238  0.43832058  0.87509446    -0.60800
O792        O  0.69861986  0.04825474  0.87300766    -0.69200
O793        O  0.75975089  0.05614310  0.87200678    -0.68800
O794        O  0.77500354  0.44562299  0.87091245    -0.60000
O795        O  0.76455769  0.00071904  0.81580158    -0.72500
O796        O  0.76945189  0.00136320  0.92757754    -0.71300
Cu797      Cu  0.70501839  0.49310096  0.87437867     1.04600
Cu798      Cu  0.76917803  0.00136849  0.87163793     1.04300
C799        C  0.74071093  0.49735479  0.94657234     0.95000
C800        C  0.73345500  0.99465969  0.79960360     0.94100
C801        C  0.74660746  0.42457675  0.87311906     0.86300
C802        C  0.72690231  0.06961290  0.87253389     0.92500
O803        O  0.76793304  0.24967702  0.93036997    -0.71200
O804        O  0.76666425  0.25249661  0.81870232    -0.72200
O805        O  0.76105182  0.30604572  0.87597427    -0.60800
O806        O  0.77327760  0.19550980  0.87296457    -0.69200
O807        O  0.71205925  0.18852408  0.87508640    -0.68800
O808        O  0.69977463  0.29910038  0.87523451    -0.60000
O809        O  0.70571259  0.24315429  0.81904226    -0.72500
O810        O  0.70655154  0.24417168  0.93143026    -0.71300
Cu811      Cu  0.76933809  0.25114830  0.87452793     1.04600
Cu812      Cu  0.70384158  0.24354900  0.87522031     1.04300
C813        C  0.73767748  0.24676718  0.94855191     0.95000
C814        C  0.73601652  0.24794528  0.80126822     0.94100
C815        C  0.72840014  0.31997776  0.87563158     0.86300
C816        C  0.74468188  0.17458223  0.87369393     0.92500
O817        O  0.00609268  0.03926524  0.43452723    -0.71200
O818        O  0.01058282  0.04316231  0.32261560    -0.72200
O819        O  0.95292443  0.04848710  0.37663542    -0.60800
O820        O  0.56287039  0.03990535  0.37436051    -0.69200
O821        O  0.55864791  0.48065375  0.37004484    -0.68800
O822        O  0.94479973  0.48936341  0.37551249    -0.60000
O823        O  0.50429767  0.48556341  0.31345588    -0.72500
O824        O  0.50264595  0.48202933  0.42518181    -0.71300
Cu825      Cu  0.00834287  0.04352556  0.37864533     1.04600
Cu826      Cu  0.50319748  0.48169825  0.36928667     1.04300
C827        C  0.00238736  0.00789250  0.45050555     0.95000
C828        C  0.50574038  0.01820989  0.29847675     0.94100
C829        C  0.93155634  0.02029520  0.37529139     0.86300
C830        C  0.57685307  0.00740917  0.37201330     0.92500
O831        O  0.95703582  0.20615222  0.36803421    -0.71200
O832        O  0.56776880  0.22149244  0.36849099    -0.72200
O833        O  0.51241677  0.20451028  0.42122829    -0.60800
O834        O  0.01336810  0.22152424  0.31501818    -0.69200
O835        O  0.00276334  0.28160498  0.32388874    -0.68800
O836        O  0.50605732  0.26483899  0.43218739    -0.60000
O837        O  0.55947808  0.28199834  0.37693768    -0.72500
O838        O  0.94951505  0.26633455  0.37910708    -0.71300
Cu839      Cu  0.51272137  0.21211453  0.36638968     1.04600
Cu840      Cu  0.00400684  0.27536230  0.37983585     1.04300
C841        C  0.93584239  0.23424828  0.37300409     0.95000
C842        C  0.58098148  0.25413158  0.37315736     0.94100
C843        C  0.00937750  0.23059976  0.44700587     0.86300
C844        C  0.50782516  0.25569972  0.29930444     0.92500
O845        O  0.74861887  0.48654818  0.31654478    -0.71200
O846        O  0.75118848  0.49352741  0.42835037    -0.72200
O847        O  0.69567305  0.49795559  0.37276191    -0.60800
O848        O  0.80529052  0.48178824  0.37216307    -0.69200
O849        O  0.81335703  0.03753315  0.37182150    -0.68800
O850        O  0.70305646  0.05343113  0.36853898    -0.60000
O851        O  0.75704541  0.04817027  0.42585393    -0.72500
O852        O  0.75976993  0.04308470  0.31433517    -0.71300
Cu853      Cu  0.74997756  0.48785712  0.37256372     1.04600
Cu854      Cu  0.75862985  0.04768255  0.37004390     1.04300
C855        C  0.75387799  0.01221289  0.29778267     0.95000
C856        C  0.75319949  0.01858597  0.44476327     0.94100
C857        C  0.68151682  0.02538422  0.37038030     0.86300
C858        C  0.82634503  0.00452765  0.37242022     0.92500
O859        O  0.70729892  0.21011397  0.37864643    -0.71200
O860        O  0.81726314  0.22249774  0.37636791    -0.72200
O861        O  0.76290017  0.22514844  0.43334464    -0.60800
O862        O  0.76169724  0.20900987  0.32181132    -0.69200
O863        O  0.75207218  0.26935601  0.31437293    -0.68800
O864        O  0.75686299  0.28571673  0.42457365    -0.60000
O865        O  0.81051262  0.28293913  0.36704974    -0.72500
O866        O  0.69951386  0.27082920  0.37209503    -0.71300
Cu867      Cu  0.76256125  0.21458795  0.37786664     1.04600
Cu868      Cu  0.75457504  0.27934494  0.36923225     1.04300
C869        C  0.68603270  0.23822941  0.37555667     0.95000
C870        C  0.83134369  0.25450020  0.37131040     0.94100
C871        C  0.76029650  0.25820099  0.44641646     0.86300
C872        C  0.75570574  0.23678981  0.30068888     0.92500
O873        O  0.49977002  0.49903471  0.67555677    -0.71200
O874        O  0.50032746  0.50557868  0.56407177    -0.72200
O875        O  0.55581976  0.50495480  0.62038719    -0.60800
O876        O  0.94333533  0.49973931  0.62446026    -0.69200
O877        O  0.94488837  0.05791688  0.62683215    -0.68800
O878        O  0.55595888  0.06231628  0.62677066    -0.60000
O879        O  0.00365998  0.06131426  0.57473397    -0.72500
O880        O  0.99652205  0.05351314  0.68603259    -0.71300
Cu881      Cu  0.50002375  0.50033349  0.61971375     1.04600
Cu882      Cu  0.00042609  0.05963120  0.63054228     1.04300
C883        C  0.49975472  0.02504155  0.69644930     0.95000
C884        C  0.00349867  0.03179305  0.55491219     0.94100
C885        C  0.57427618  0.03206676  0.62399194     0.86300
C886        C  0.92717094  0.02735415  0.62454663     0.92500
O887        O  0.95571802  0.25871993  0.63038080    -0.71200
O888        O  0.56839040  0.26049319  0.62632555    -0.72200
O889        O  0.51107038  0.26955288  0.57277461    -0.60800
O890        O  0.01154939  0.25214353  0.68543267    -0.69200
O891        O  0.01442574  0.19113602  0.67717586    -0.68800
O892        O  0.51083353  0.20879306  0.56241679    -0.60000
O893        O  0.56813182  0.19966438  0.61630839    -0.72500
O894        O  0.95720650  0.19765104  0.62242633    -0.71300
Cu895      Cu  0.51225532  0.26264539  0.62758161     1.04600
Cu896      Cu  0.01288452  0.19687203  0.62108549     1.04300
C897        C  0.93884472  0.22765751  0.62661028     0.95000
C898        C  0.58581688  0.22989582  0.62118531     0.94100
C899        C  0.01118868  0.24126097  0.55351918     0.86300
C900        C  0.51501760  0.21984514  0.69509906     0.92500
O901        O  0.75329093  0.03683421  0.67588496    -0.71200
O902        O  0.74993484  0.02767195  0.56453134    -0.72200
O903        O  0.69516747  0.03331307  0.62152190    -0.60800
O904        O  0.80717977  0.03071057  0.61917941    -0.69200
O905        O  0.80397177  0.47474953  0.62484795    -0.68800
O906        O  0.69280987  0.47783315  0.62305978    -0.60000
O907        O  0.74893412  0.47293476  0.56805951    -0.72500
O908        O  0.74751915  0.48051584  0.67993883    -0.71300
Cu909      Cu  0.75136701  0.03428903  0.62009323     1.04600
Cu910      Cu  0.74822277  0.47442861  0.62409799     1.04300
C911        C  0.75189083  0.00770951  0.69579270     0.95000
C912        C  0.74972431  0.99561011  0.54912180     0.94100
C913        C  0.67711248  0.00280903  0.62327286     0.86300
C914        C  0.82403071  0.99959738  0.62209122     0.92500
O915        O  0.76294178  0.27819327  0.56611669    -0.71200
O916        O  0.76215011  0.29245506  0.67809868    -0.72200
O917        O  0.81796714  0.28535848  0.62294403    -0.60800
O918        O  0.70706233  0.28717300  0.62136333    -0.69200
O919        O  0.70555694  0.22591291  0.62691286    -0.68800
O920        O  0.81779749  0.22442951  0.63134841    -0.60000
O921        O  0.75887890  0.23135290  0.68452792    -0.72500
O922        O  0.76340226  0.21723861  0.57420987    -0.71300
Cu923      Cu  0.76258956  0.28792459  0.62185291     1.04600
Cu924      Cu  0.76144318  0.22260312  0.62952692     1.04300
C925        C  0.76333860  0.24517312  0.55267835     0.95000
C926        C  0.75964448  0.26384820  0.69879949     0.94100
C927        C  0.83548676  0.25497485  0.62746022     0.86300
C928        C  0.68874790  0.25705862  0.62372675     0.92500
C929        C  0.89781901  0.22571120  0.62707545    -0.14700
C930        C  0.87649157  0.25623875  0.62803634    -0.29900
H931        H  0.88490835  0.19850662  0.62591233     0.14300
H932        H  0.88950280  0.28341502  0.62821133     0.14900
C933        C  0.62671370  0.22845688  0.62125342    -0.14700
C934        C  0.64784388  0.25898407  0.62300015    -0.29900
H935        H  0.63977732  0.20129800  0.61973593     0.14300
H936        H  0.63486892  0.28621038  0.62365200     0.14900
C937        C  0.86505568  0.99790166  0.62251846    -0.14700
C938        C  0.88618690  0.02859313  0.62273742    -0.29900
H939        H  0.87630024  0.47509319  0.62437083     0.14300
H940        H  0.87304166  0.05573984  0.62226760     0.14900
C941        C  0.63609974  0.00240453  0.62353457    -0.14700
C942        C  0.61533292  0.03339882  0.62413572    -0.29900
H943        H  0.62144937  0.48084517  0.62073307     0.14300
H944        H  0.62869565  0.06041552  0.62483222     0.14900
C945        C  0.76109768  0.26548349  0.48695831    -0.14700
C946        C  0.76350055  0.23823200  0.51209423    -0.29900
H947        H  0.75922966  0.29413637  0.49631716     0.14300
H948        H  0.76499651  0.20956835  0.50269200     0.14900
C949        C  0.74974090  0.99197669  0.50812789    -0.14700
C950        C  0.75253804  0.02158080  0.48575223    -0.29900
H951        H  0.74819940  0.47143545  0.49554709     0.14300
H952        H  0.75469515  0.04919992  0.49785107     0.14900
C953        C  0.01027616  0.22247931  0.48721331    -0.14700
C954        C  0.01010234  0.24919949  0.51328378    -0.29900
H955        H  0.01157421  0.19357897  0.49550833     0.14300
H956        H  0.50816399  0.27899766  0.50180346     0.14900
C957        C  0.89521934  0.22956441  0.37184469    -0.14700
C958        C  0.87200287  0.25887921  0.37095194    -0.29900
H959        H  0.88423161  0.20149368  0.37151355     0.14300
H960        H  0.88306634  0.28690445  0.37013282     0.14900
C961        C  0.62134243  0.26036203  0.37415002    -0.14700
C962        C  0.64564006  0.23221329  0.37543015    -0.29900
H963        H  0.63122288  0.28881651  0.37422890     0.14300
H964        H  0.63569369  0.20379764  0.37619635     0.14900
C965        C  0.00166202  0.00522387  0.49144614    -0.14700
C966        C  0.00448545  0.03498485  0.51398870    -0.29900
H967        H  0.50311274  0.48232372  0.49740830     0.14300
H968        H  0.00714567  0.06251492  0.50218325     0.14900
C969        C  0.86676267  0.99817016  0.37326797    -0.14700
C970        C  0.89111542  0.02633345  0.37429108    -0.29900
H971        H  0.87679076  0.47400103  0.37281078     0.14300
H972        H  0.88117932  0.05480842  0.37449356     0.14900
C973        C  0.64104010  0.03108664  0.37039487    -0.14700
C974        C  0.61735579  0.00234788  0.37157997    -0.29900
H975        H  0.63057831  0.05935240  0.36953129     0.14300
H976        H  0.62993369  0.47876029  0.37159279     0.14900
C977        C  0.73567808  0.24675949  0.76025801    -0.14700
C978        C  0.75812516  0.26810111  0.73960615    -0.29900
H979        H  0.71619017  0.22807338  0.74663176     0.14300
H980        H  0.77519408  0.28926072  0.75281614     0.14900
C981        C  0.73156939  0.99150223  0.75876156    -0.14700
C982        C  0.75358437  0.01147677  0.73655764    -0.29900
H983        H  0.71283069  0.47335028  0.74645488     0.14300
H984        H  0.77194539  0.03233846  0.74847690     0.14900
C985        C  0.75198208  0.38409063  0.87348253    -0.14700
C986        C  0.72322919  0.36047750  0.87552090    -0.29900
H987        H  0.78022724  0.37352687  0.87197455     0.14300
H988        H  0.69497663  0.37106159  0.87672385     0.14900
C989        C  0.72124899  0.11014844  0.87284670    -0.14700
C990        C  0.74992027  0.13402400  0.87293086    -0.29900
H991        H  0.69289185  0.12052023  0.87329222     0.14300
H992        H  0.77825245  0.12358568  0.87244555     0.14900
C993        C  0.50245960  0.24177195  0.75807265    -0.14700
C994        C  0.51677282  0.21542245  0.73579587    -0.29900
H995        H  0.97590248  0.25913839  0.74847700     0.14300
H996        H  0.52909296  0.19056296  0.74748356     0.14900
C997        C  0.49715673  0.02262609  0.73725074    -0.14700
C998        C  0.51371701  0.99565200  0.75687549    -0.29900
H999        H  0.97767192  0.04166147  0.75620937     0.14300
H1000       H  0.52549374  0.47568452  0.73887685     0.14900
C1001       C  0.98131463  0.37581165  0.87216814    -0.14700
C1002       C  0.01001916  0.35195657  0.87401168    -0.29900
H1003       H  0.95305784  0.36534226  0.87033516     0.14300
H1004       H  0.55485520  0.36332847  0.86776843     0.14900
C1005       C  0.00963873  0.10175025  0.87804596    -0.14700
C1006       C  0.98109677  0.12575901  0.87657284    -0.29900
H1007       H  0.54360266  0.11559529  0.87499691     0.14300
H1008       H  0.95272985  0.11554471  0.87522673     0.14900
C1009       C  0.72578113  0.24828430  0.24050970    -0.14700
C1010       C  0.75274088  0.23138607  0.26010619    -0.29900
H1011       H  0.70475775  0.26439221  0.25506328     0.14300
H1012       H  0.77198749  0.21257477  0.24640432     0.14900
C1013       C  0.73961514  0.24624330  0.98963388    -0.14700
C1014       C  0.70941550  0.24613196  0.01158301    -0.29900
H1015       H  0.76711963  0.24626447  0.00221438     0.14300
H1016       H  0.68183639  0.24685065  0.99920359     0.14900
C1017       C  0.75336001  0.01109495  0.25685540    -0.14700
C1018       C  0.72596457  0.99399258  0.23805083    -0.29900
H1019       H  0.77394256  0.02718074  0.24196200     0.14300
H1020       H  0.70067323  0.48671553  0.25399576     0.14900
C1021       C  0.71253916  0.49528372  0.00929440    -0.14700
C1022       C  0.74293611  0.49672545  0.98763128    -0.29900
H1023       H  0.68443436  0.99675762  0.99704115     0.14300
H1024       H  0.77037385  0.49762482  0.00033157     0.14900
C1025       C  0.70459070  0.38223363  0.12579347    -0.14700
C1026       C  0.73314321  0.35823158  0.12568468    -0.29900
H1027       H  0.67622191  0.37195619  0.12642858     0.14300
H1028       H  0.76153120  0.36843107  0.12500744     0.14900
C1029       C  0.73105735  0.10861534  0.12411949    -0.14700
C1030       C  0.70226370  0.13228586  0.12633514    -0.29900
H1031       H  0.75921232  0.11925342  0.12216564     0.14300
H1032       H  0.67406080  0.12178214  0.12830568     0.14900
C1033       C  0.52934265  0.24054209  0.23661139    -0.14700
C1034       C  0.50750317  0.26123090  0.25871780    -0.29900
H1035       H  0.54924086  0.22149792  0.24893826     0.14300
H1036       H  0.98940294  0.27989822  0.24945672     0.14900
C1037       C  0.02728401  0.23967401  0.01061423    -0.14700
C1038       C  0.99598524  0.24077487  0.99012607    -0.29900
H1039       H  0.56198871  0.24306557  0.99514742     0.14300
H1040       H  0.96916876  0.24232338  0.00383437     0.14900
C1041       C  0.52182172  0.49383905  0.23466962    -0.14700
C1042       C  0.50381122  0.51853445  0.25616994    -0.29900
H1043       H  0.96542428  0.47455573  0.25310632     0.14300
H1044       H  0.52599730  0.04113601  0.24554820     0.14900
C1045       C  0.52794179  0.48942269  0.98276875    -0.14700
C1046       C  0.51702467  0.99340396  0.00820672    -0.29900
H1047       H  0.95387772  0.48950612  0.99996957     0.14300
H1048       H  0.54529175  0.99288740  0.99769750     0.14900
C1049       C  0.50061549  0.38043687  0.12261532    -0.14700
C1050       C  0.53112359  0.35869406  0.12311167    -0.29900
H1051       H  0.97085335  0.36224970  0.12481697     0.14300
H1052       H  0.55854228  0.37134121  0.12320285     0.14900
C1053       C  0.53164906  0.13029179  0.12160381    -0.14700
C1054       C  0.50065406  0.10953215  0.12103964    -0.29900
H1055       H  0.55870750  0.11688887  0.12215156     0.14300
H1056       H  0.97078885  0.11808411  0.12485622     0.14900
O1057       O  0.97352383  0.48996485  0.06822412    -0.71200
O1058       O  0.96232040  0.48953715  0.17964132    -0.72200
O1059       O  0.96757352  0.54586957  0.12450222    -0.60800
O1060       O  0.96963978  0.93416843  0.12413944    -0.69200
O1061       O  0.53571219  0.93981377  0.12665217    -0.68800
O1062       O  0.54984142  0.54518722  0.11797229    -0.60000
O1063       O  0.52803503  0.99776043  0.18099401    -0.72500
O1064       O  0.54056128  0.99439959  0.06995147    -0.71300
Cu1065     Cu  0.96570692  0.48996009  0.12372267     1.04600
Cu1066     Cu  0.53651616  0.99594862  0.12570263     1.04300
C1067       C  0.50453644  0.49374193  0.04726544     0.95000
C1068       C  0.49543290  0.99606216  0.19485152     0.94100
C1069       C  0.52194729  0.56690250  0.12007270     0.86300
C1070       C  0.50528962  0.92197974  0.12232509     0.92500
O1071       O  0.55843538  0.79690522  0.12829263    -0.71200
O1072       O  0.54227052  0.68552041  0.12413262    -0.72200
O1073       O  0.55430750  0.74210515  0.07104399    -0.60800
O1074       O  0.54801517  0.73936114  0.18154756    -0.69200
O1075       O  0.99698577  0.74228421  0.18494976    -0.68800
O1076       O  0.99731276  0.73931521  0.07332391    -0.60000
O1077       O  0.99677404  0.68449346  0.12992567    -0.72500
O1078       O  0.99801091  0.79651881  0.12823452    -0.71300
Cu1079     Cu  0.55292446  0.74071732  0.12640173     1.04600
Cu1080     Cu  0.99511969  0.74066696  0.12909528     1.04300
C1081       C  0.02914073  0.81361582  0.12885396     0.95000
C1082       C  0.02751243  0.66657327  0.12960039     0.94100
C1083       C  0.02807623  0.73895024  0.05567937     0.86300
C1084       C  0.02775908  0.74106212  0.20269870     0.92500
O1085       O  0.68308407  0.94308222  0.12449019    -0.71200
O1086       O  0.69339068  0.55393730  0.12531729    -0.72200
O1087       O  0.68497830  0.49845054  0.06927716    -0.60800
O1088       O  0.69210748  0.99678203  0.18133772    -0.69200
O1089       O  0.75357031  0.99287822  0.17782158    -0.68800
O1090       O  0.74613047  0.49105016  0.06669236    -0.60000
O1091       O  0.75458818  0.54726946  0.12136465    -0.72500
O1092       O  0.74440498  0.93674369  0.12232731    -0.71300
Cu1093     Cu  0.68530771  0.49885522  0.12540217     1.04600
Cu1094     Cu  0.75207281  0.99211257  0.12188872     1.04300
C1095       C  0.71190745  0.92248333  0.12348858     0.95000
C1096       C  0.72588847  0.56800709  0.12331875     0.94100
C1097       C  0.71487375  0.99605779  0.05035819     0.86300
C1098       C  0.72191722  0.49665992  0.19737126     0.92500
O1099       O  0.69637144  0.80446573  0.12656271    -0.71200
O1100       O  0.68040981  0.69444320  0.12953122    -0.72200
O1101       O  0.69108908  0.75150525  0.18394045    -0.60800
O1102       O  0.68582926  0.74803310  0.07234570    -0.69200
O1103       O  0.74705879  0.74117421  0.06995324    -0.68800
O1104       O  0.75171253  0.74025998  0.18187870    -0.60000
O1105       O  0.74134306  0.68589935  0.12541910    -0.72500
O1106       O  0.75744191  0.79587482  0.12613166    -0.71300
Cu1107     Cu  0.68628426  0.74985877  0.12822214     1.04600
Cu1108     Cu  0.75151411  0.74044383  0.12579328     1.04300
C1109       C  0.72935580  0.81754390  0.12597561     0.95000
C1110       C  0.70844237  0.67280451  0.12739214     0.94100
C1111       C  0.72213161  0.74645695  0.20048098     0.86300
C1112       C  0.71567547  0.74461780  0.05353499     0.92500
O1113       O  0.55553827  0.54362989  0.86734058    -0.71200
O1114       O  0.52552362  0.93391380  0.87354318    -0.72200
O1115       O  0.53774252  0.98821570  0.81815060    -0.60800
O1116       O  0.55223786  0.48690346  0.92177446    -0.69200
O1117       O  0.95828149  0.49093095  0.92779949    -0.68800
O1118       O  0.97008409  0.99475331  0.81682885    -0.60000
O1119       O  0.95689641  0.93777746  0.87035048    -0.72500
O1120       O  0.97005664  0.54789350  0.87540151    -0.71300
Cu1121     Cu  0.53391453  0.98870978  0.87411560     1.04600
Cu1122     Cu  0.96195392  0.49309252  0.87210199     1.04300
C1123       C  0.00259075  0.56173867  0.87833735     0.95000
C1124       C  0.98489068  0.91634414  0.87434208     0.94100
C1125       C  0.00207380  0.49161975  0.80233310     0.86300
C1126       C  0.98682941  0.98867694  0.94868776     0.92500
O1127       O  0.54594759  0.74159678  0.82135903    -0.71200
O1128       O  0.53552759  0.74061056  0.93243647    -0.72200
O1129       O  0.53809486  0.68509550  0.87576944    -0.60800
O1130       O  0.54372759  0.79619451  0.87791628    -0.69200
O1131       O  0.96902641  0.79797799  0.88154189    -0.68800
O1132       O  0.95548992  0.68749000  0.88066161    -0.60000
O1133       O  0.96466688  0.74232417  0.93696431    -0.72500
O1134       O  0.95968978  0.74376346  0.82563108    -0.71300
Cu1135     Cu  0.54297389  0.74068609  0.87709796     1.04600
Cu1136     Cu  0.96009072  0.74307896  0.88133706     1.04300
C1137       C  0.98919798  0.73911254  0.80660373     0.95000
C1138       C  0.99595696  0.73917622  0.95348614     0.94100
C1139       C  0.98398681  0.66634662  0.88002859     0.86300
C1140       C  0.00176352  0.81145065  0.87934931     0.92500
O1141       O  0.70820485  0.99491816  0.93016167    -0.71200
O1142       O  0.70384370  0.99031438  0.81851650    -0.72200
O1143       O  0.71344936  0.93801641  0.87581781    -0.60800
O1144       O  0.70049241  0.54871681  0.87362542    -0.69200
O1145       O  0.76170219  0.55603944  0.87267437    -0.68800
O1146       O  0.77444373  0.94592299  0.87160480    -0.60000
O1147       O  0.76562712  0.50132892  0.81564281    -0.72500
O1148       O  0.77060703  0.50042358  0.92776275    -0.71300
Cu1149     Cu  0.70387978  0.99268781  0.87442612     1.04600
Cu1150     Cu  0.77039463  0.50115070  0.87164370     1.04300
C1151       C  0.73965506  0.99821954  0.94647403     0.95000
C1152       C  0.73438246  0.49578931  0.79949074     0.94100
C1153       C  0.74627592  0.92460508  0.87402895     0.86300
C1154       C  0.72898413  0.56980159  0.87332409     0.92500
O1155       O  0.77110237  0.74962003  0.93099226    -0.71200
O1156       O  0.76616746  0.75324264  0.81929519    -0.72200
O1157       O  0.76199961  0.80626897  0.87707027    -0.60800
O1158       O  0.77533671  0.69585584  0.87301954    -0.69200
O1159       O  0.71427347  0.68837883  0.87691279    -0.68800
O1160       O  0.70079818  0.79872101  0.87789871    -0.60000
O1161       O  0.70536405  0.74314143  0.82165604    -0.72500
O1162       O  0.70980810  0.74358795  0.93334058    -0.71300
Cu1163     Cu  0.77080849  0.75147873  0.87504980     1.04600
Cu1164     Cu  0.70542700  0.74323740  0.87755295     1.04300
C1165       C  0.74125162  0.74632072  0.94978080     0.95000
C1166       C  0.73492852  0.74854999  0.80295727     0.94100
C1167       C  0.72921225  0.81987385  0.87755830     0.86300
C1168       C  0.74694565  0.67469873  0.87451998     0.92500
O1169       O  0.00843775  0.53875291  0.43415291    -0.71200
O1170       O  0.01258935  0.54109224  0.32229801    -0.72200
O1171       O  0.95546712  0.54998537  0.37637898    -0.60800
O1172       O  0.56242461  0.54212456  0.37144111    -0.69200
O1173       O  0.55602455  0.97882577  0.36998296    -0.68800
O1174       O  0.94496864  0.98744711  0.37481388    -0.60000
O1175       O  0.50046348  0.98716903  0.31454541    -0.72500
O1176       O  0.50084169  0.98240329  0.42599301    -0.71300
Cu1177     Cu  0.01070193  0.54207366  0.37824549     1.04600
Cu1178     Cu  0.50044492  0.98274370  0.37020596     1.04300
C1179       C  0.00336655  0.50782752  0.45057478     0.95000
C1180       C  0.50505672  0.51691273  0.29710242     0.94100
C1181       C  0.93283759  0.52275445  0.37545374     0.86300
C1182       C  0.57801255  0.51025684  0.37072801     0.92500
O1183       O  0.95059201  0.70857697  0.37266763    -0.71200
O1184       O  0.56011002  0.72802880  0.37076051    -0.72200
O1185       O  0.50452991  0.71352676  0.42396207    -0.60800
O1186       O  0.00710923  0.72217042  0.31899849    -0.69200
O1187       O  0.99622115  0.78247176  0.32580632    -0.68800
O1188       O  0.49906022  0.77407377  0.43416227    -0.60000
O1189       O  0.55346781  0.78878098  0.37882907    -0.72500
O1190       O  0.94266465  0.76907299  0.38138441    -0.71300
Cu1191     Cu  0.50484709  0.72026058  0.36910420     1.04600
Cu1192     Cu  0.99710420  0.77846824  0.38195489     1.04300
C1193       C  0.92919850  0.73668643  0.37656021     0.95000
C1194       C  0.57422142  0.76030862  0.37513319     0.94100
C1195       C  0.00224952  0.73656837  0.45080847     0.86300
C1196       C  0.50073262  0.76283200  0.30137974     0.92500
O1197       O  0.74843730  0.98259719  0.31633638    -0.71200
O1198       O  0.74991904  0.98711265  0.42844490    -0.72200
O1199       O  0.69473140  0.99258336  0.37244779    -0.60800
O1200       O  0.80459112  0.97660363  0.37234552    -0.69200
O1201       O  0.81443831  0.54263343  0.37038472    -0.68800
O1202       O  0.70380971  0.55870985  0.36762678    -0.60000
O1203       O  0.75846080  0.55449989  0.42476586    -0.72500
O1204       O  0.76002641  0.54694436  0.31308424    -0.71300
Cu1205     Cu  0.74917834  0.98258135  0.37244837     1.04600
Cu1206     Cu  0.75953458  0.55285878  0.36881374     1.04300
C1207       C  0.75374942  0.51573744  0.29728171     0.95000
C1208       C  0.75462160  0.52521879  0.44417636     0.94100
C1209       C  0.68232928  0.53064911  0.37002445     0.86300
C1210       C  0.82721725  0.50956019  0.37166876     0.92500
O1211       O  0.69984880  0.71353027  0.38070682    -0.71200
O1212       O  0.81025685  0.72481764  0.37967014    -0.72200
O1213       O  0.75488366  0.72958231  0.43561478    -0.60800
O1214       O  0.75537032  0.71012202  0.32475540    -0.69200
O1215       O  0.74649140  0.77033317  0.31560382    -0.68800
O1216       O  0.74958727  0.78996520  0.42528020    -0.60000
O1217       O  0.80401286  0.78502446  0.36867262    -0.72500
O1218       O  0.69298116  0.77413300  0.37248968    -0.71300
Cu1219     Cu  0.75532856  0.71739168  0.38057936     1.04600
Cu1220     Cu  0.74811619  0.78196116  0.37013843     1.04300
C1221       C  0.67898585  0.74186890  0.37678032     0.95000
C1222       C  0.82460444  0.75659910  0.37392268     0.94100
C1223       C  0.75234835  0.76295874  0.44782511     0.86300
C1224       C  0.75018718  0.73741217  0.30281702     0.92500
O1225       O  0.50197915  0.99556641  0.67665662    -0.71200
O1226       O  0.50138527  0.00382813  0.56508512    -0.72200
O1227       O  0.55734050  0.00102297  0.62095331    -0.60800
O1228       O  0.94464468  0.99640794  0.62397227    -0.69200
O1229       O  0.94430907  0.56124881  0.62700773    -0.68800
O1230       O  0.55324856  0.56625838  0.62547883    -0.60000
O1231       O  0.00270357  0.56341534  0.57418000    -0.72500
O1232       O  0.99641385  0.55664993  0.68598638    -0.71300
Cu1233     Cu  0.50158250  0.99761006  0.62071078     1.04600
Cu1234     Cu  0.99980621  0.56240889  0.63022047     1.04300
C1235       C  0.49718020  0.52853891  0.69525914     0.95000
C1236       C  0.00252878  0.53363688  0.55468829     0.94100
C1237       C  0.57217331  0.53636688  0.62306941     0.86300
C1238       C  0.92622245  0.53090848  0.62499973     0.92500
O1239       O  0.94562359  0.76516874  0.63485328    -0.71200
O1240       O  0.55813470  0.76782712  0.62897831    -0.72200
O1241       O  0.50085328  0.77853965  0.57554649    -0.60800
O1242       O  0.00222388  0.75823348  0.68953477    -0.69200
O1243       O  0.00583456  0.69742108  0.68011504    -0.68800
O1244       O  0.50135861  0.71791599  0.56443162    -0.60000
O1245       O  0.55660099  0.70684905  0.62027184    -0.72500
O1246       O  0.94771559  0.70419553  0.62627801    -0.71300
Cu1247     Cu  0.50204039  0.77086708  0.63038085     1.04600
Cu1248     Cu  0.00340821  0.70404779  0.62433669     1.04300
C1249       C  0.92906119  0.73399260  0.63071052     0.95000
C1250       C  0.57497260  0.73679590  0.62459482     0.94100
C1251       C  0.00083437  0.74906648  0.55722439     0.86300
C1252       C  0.50177746  0.72690943  0.69720624     0.92500
O1253       O  0.75129143  0.54181813  0.67599870    -0.71200
O1254       O  0.74961589  0.53433091  0.56432960    -0.72200
O1255       O  0.69368157  0.53931563  0.62065550    -0.60800
O1256       O  0.80608511  0.53603213  0.61994705    -0.69200
O1257       O  0.80565394  0.96948881  0.62494170    -0.68800
O1258       O  0.69426509  0.97186141  0.62466042    -0.60000
O1259       O  0.74967270  0.96632271  0.56893011    -0.72500
O1260       O  0.74969088  0.97557098  0.68068510    -0.71300
Cu1261     Cu  0.75013716  0.54007114  0.62008220     1.04600
Cu1262     Cu  0.74978152  0.96868934  0.62496244     1.04300
C1263       C  0.74977453  0.51243070  0.69553150     0.95000
C1264       C  0.74955473  0.50243580  0.54857461     0.94100
C1265       C  0.67562165  0.50874967  0.62182642     0.86300
C1266       C  0.82263877  0.50470719  0.62260543     0.92500
O1267       O  0.75275942  0.78415085  0.56756603    -0.71200
O1268       O  0.75285681  0.79769785  0.67967226    -0.72200
O1269       O  0.80802754  0.79109625  0.62415961    -0.60800
O1270       O  0.69704518  0.79276946  0.62330048    -0.69200
O1271       O  0.69542142  0.73150843  0.62863749    -0.68800
O1272       O  0.80793421  0.73012502  0.63227238    -0.60000
O1273       O  0.74975983  0.73652628  0.68553887    -0.72500
O1274       O  0.75312969  0.72317058  0.57555818    -0.71300
Cu1275     Cu  0.75266719  0.79358029  0.62338511     1.04600
Cu1276     Cu  0.75154370  0.72821893  0.63072587     1.04300
C1277       C  0.75321162  0.75113585  0.55410853     0.95000
C1278       C  0.75104715  0.76884636  0.70011378     0.94100
C1279       C  0.82558230  0.76073957  0.62870290     0.86300
C1280       C  0.67862348  0.76270703  0.62574197     0.92500
C1281       C  0.88805303  0.73175155  0.63076143    -0.14700
C1282       C  0.86656937  0.76216472  0.62986033    -0.29900
H1283       H  0.87532146  0.70444772  0.63046079     0.14300
H1284       H  0.87946827  0.78938286  0.62915971     0.14900
C1285       C  0.61596340  0.73464676  0.62465971    -0.14700
C1286       C  0.63762677  0.76489650  0.62543912    -0.29900
H1287       H  0.62861900  0.70727847  0.62369846     0.14300
H1288       H  0.62497620  0.79228030  0.62559297     0.14900
C1289       C  0.86364072  0.50244417  0.62330403    -0.14700
C1290       C  0.88524486  0.53276862  0.62339464    -0.29900
H1291       H  0.87811679  0.97073778  0.62353256     0.14300
H1292       H  0.87250927  0.56010557  0.62279470     0.14900
C1293       C  0.63457534  0.50797712  0.62171442    -0.14700
C1294       C  0.61325446  0.53855606  0.62320337    -0.29900
H1295       H  0.62258585  0.97545153  0.62335462     0.14300
H1296       H  0.62613904  0.56577964  0.62460117     0.14900
C1297       C  0.75242572  0.77104503  0.48819544    -0.14700
C1298       C  0.75379555  0.74404414  0.51362830    -0.29900
H1299       H  0.75090259  0.79985073  0.49712484     0.14300
H1300       H  0.75500697  0.71527207  0.50451879     0.14900
C1301       C  0.75030369  0.49908573  0.50757073    -0.14700
C1302       C  0.75394050  0.52860874  0.48517902    -0.29900
H1303       H  0.74797857  0.96428262  0.49615347     0.14300
H1304       H  0.75643130  0.55622815  0.49720707     0.14900
C1305       C  0.00245121  0.72966790  0.49126169    -0.14700
C1306       C  0.00021550  0.75678319  0.51687884    -0.29900
H1307       H  0.00478084  0.70102050  0.50018991     0.14300
H1308       H  0.49899339  0.78856106  0.50429804     0.14900
C1309       C  0.88857848  0.73171290  0.37558406    -0.14700
C1310       C  0.86527346  0.76089854  0.37379429    -0.29900
H1311       H  0.87768628  0.70361350  0.37605436     0.14300
H1312       H  0.87629284  0.78890370  0.37220450     0.14900
C1313       C  0.61477277  0.76541301  0.37579401    -0.14700
C1314       C  0.63843477  0.73666641  0.37682208    -0.29900
H1315       H  0.62536121  0.79361457  0.37580072     0.14300
H1316       H  0.62784831  0.70848687  0.37775199     0.14900
C1317       C  0.00227916  0.50590655  0.49159396    -0.14700
C1318       C  0.00409584  0.53614239  0.51367931    -0.29900
H1319       H  0.50148363  0.98167391  0.49804868     0.14300
H1320       H  0.00646208  0.56349939  0.50142505     0.14900
C1321       C  0.86753827  0.50270298  0.37278608    -0.14700
C1322       C  0.89259090  0.53025818  0.37417063    -0.29900
H1323       H  0.87664351  0.96967841  0.37321723     0.14300
H1324       H  0.88343712  0.55898806  0.37431442     0.14900
C1325       C  0.64173367  0.53596058  0.36969824    -0.14700
C1326       C  0.61866735  0.50672530  0.37078209    -0.29900
H1327       H  0.63073346  0.56400214  0.36848204     0.14300
H1328       H  0.62789934  0.97409675  0.37193604     0.14900
C1329       C  0.73290813  0.74791848  0.76212518    -0.14700
C1330       C  0.75113237  0.77244944  0.74096801    -0.29900
H1331       H  0.71524840  0.72711595  0.74908987     0.14300
H1332       H  0.76608028  0.79536875  0.75381357     0.14900
C1333       C  0.73217275  0.49317240  0.75860748    -0.14700
C1334       C  0.75164918  0.51563792  0.73641541    -0.29900
H1335       H  0.71070600  0.97328701  0.74659863     0.14300
H1336       H  0.76820530  0.53786441  0.74851621     0.14900
C1337       C  0.75209284  0.88419386  0.87478477    -0.14700
C1338       C  0.72362683  0.86030989  0.87742367    -0.29900
H1339       H  0.78042741  0.87391276  0.87299321     0.14300
H1340       H  0.69528600  0.87061197  0.87897691     0.14900
C1341       C  0.72363097  0.61034616  0.87393642    -0.14700
C1342       C  0.75234383  0.63416126  0.87351352    -0.29900
H1343       H  0.69531667  0.62080203  0.87491115     0.14300
H1344       H  0.78065643  0.62371731  0.87238719     0.14900
C1345       C  0.52056180  0.74354975  0.76051773    -0.14700
C1346       C  0.50094993  0.72140174  0.73767331    -0.29900
H1347       H  0.96765577  0.76210742  0.75443214     0.14300
H1348       H  0.48397725  0.69926679  0.74887233     0.14900
C1349       C  0.49596024  0.52604196  0.73625552    -0.14700
C1350       C  0.51085539  0.49710948  0.75436859    -0.29900
H1351       H  0.97930305  0.54520919  0.75689144     0.14300
H1352       H  0.53198649  0.97587732  0.74317734     0.14900
C1353       C  0.97904692  0.87588936  0.87475248    -0.14700
C1354       C  0.00740823  0.85188650  0.87837131    -0.29900
H1355       H  0.95074298  0.86567512  0.87227466     0.14300
H1356       H  0.54530206  0.86770594  0.87830332     0.14900
C1357       C  0.00763460  0.60221964  0.87974862    -0.14700
C1358       C  0.97873608  0.62585837  0.87961507    -0.29900
H1359       H  0.56058296  0.61677544  0.87126459     0.14300
H1360       H  0.95046806  0.61531720  0.87892356     0.14900
C1361       C  0.72363977  0.74962182  0.24133398    -0.14700
C1362       C  0.74835596  0.73110910  0.26230050    -0.29900
H1363       H  0.70332208  0.76755143  0.25472089     0.14300
H1364       H  0.76660186  0.71057180  0.24974803     0.14900
C1365       C  0.74364299  0.74560420  0.99079069    -0.14700
C1366       C  0.71333092  0.74481519  0.01252453    -0.29900
H1367       H  0.77112778  0.74617230  0.00339133     0.14300
H1368       H  0.68583231  0.74502320  0.99994319     0.14900
C1369       C  0.75252706  0.51362323  0.25639994    -0.14700
C1370       C  0.72397866  0.49755072  0.23833884    -0.29900
H1371       H  0.77394265  0.52790664  0.24085642     0.14300
H1372       H  0.70322534  0.98133519  0.25315419     0.14900
C1373       C  0.71204277  0.99680330  0.00939024    -0.14700
C1374       C  0.74219288  0.99800404  0.98745404    -0.29900
H1375       H  0.68507296  0.49514548  0.99662913     0.14300
H1376       H  0.76975817  0.99880964  0.99987822     0.14900
C1377       C  0.70681261  0.88196774  0.12394007    -0.14700
C1378       C  0.73537083  0.85798491  0.12501556    -0.29900
H1379       H  0.67845808  0.87163566  0.12384874     0.14300
H1380       H  0.76376934  0.86817337  0.12521235     0.14900
C1381       C  0.73097818  0.60848656  0.12344107    -0.14700
C1382       C  0.70252105  0.63237205  0.12705221    -0.29900
H1383       H  0.75917398  0.61887067  0.12080424     0.14300
H1384       H  0.67427897  0.62211531  0.12968766     0.14900
C1385       C  0.51631787  0.74203011  0.23856160    -0.14700
C1386       C  0.50013533  0.76744014  0.26064251    -0.29900
H1387       H  0.53185302  0.71930288  0.25085100     0.14300
H1388       H  0.98258027  0.77661171  0.25114877     0.14900
C1389       C  0.02825610  0.73821529  0.01456881    -0.14700
C1390       C  0.99665295  0.73949360  0.99454029    -0.29900
H1391       H  0.55633575  0.74270375  0.99940847     0.14300
H1392       H  0.97007989  0.74119719  0.00870487     0.14900
C1393       C  0.49062689  0.99571829  0.23544461    -0.14700
C1394       C  0.50882019  0.01963084  0.25766619    -0.29900
H1395       H  0.96896813  0.97324464  0.25307742     0.14300
H1396       H  0.48853106  0.54113659  0.24336839     0.14900
C1397       C  0.48823419  0.99324070  0.98429052    -0.14700
C1398       C  0.49945362  0.49363312  0.00643098    -0.29900
H1399       H  0.95397014  0.99061903  0.00028339     0.14300
H1400       H  0.47147126  0.49733546  0.99561638     0.14900
C1401       C  0.50427429  0.88111118  0.12232201    -0.14700
C1402       C  0.53423893  0.85902302  0.12623824    -0.29900
H1403       H  0.97246206  0.86231701  0.12648671     0.14300
H1404       H  0.56178330  0.87095609  0.12956503     0.14900
C1405       C  0.50164276  0.63255285  0.12218524    -0.14700
C1406       C  0.52896083  0.60727720  0.12040770    -0.29900
H1407       H  0.47287388  0.62349441  0.12289833     0.14300
H1408       H  0.97015878  0.61827469  0.12572213     0.14900
loop_ 
_geom_bond_atom_site_label_1 
_geom_bond_atom_site_label_2 
_geom_bond_distance 
_geom_bond_site_symmetry_2 
_ccdc_geom_bond_type 
O1           Cu9   2.012       .  S
O1          C715   1.279       .  A
O2           Cu9   2.012       .  S
O2         C1068   1.277       .  A
O3           Cu9   2.012   1_545  S
O3          C717   1.277       .  A
O4         Cu361   2.038       .  S
O4          C718   1.281       .  A
O5          Cu10   2.024       .  S
O5           C14   1.280   1_455  A
O6         Cu362   2.019   1_545  S
O6           C13   1.280   1_455  A
O7          Cu10   2.011       .  S
O7           C12   1.278   1_455  A
O8          Cu10   2.010       .  S
O8          C363   1.277       .  A
Cu9         O356   2.000       .  S
Cu9       Cu1066   2.374       .  S
Cu10        O358   2.017       .  S
Cu10      Cu1065   2.373   1_455  S
C11         O705   1.279   1_455  A
C11         O360   1.277       .  A
C11         C342   1.478       .  S
C12        O1058   1.278       .  A
C12         C337   1.474       .  S
C13         O707   1.278       .  A
C13         C350   1.481       .  S
C14         O708   1.277       .  A
C14         C345   1.480       .  S
O15         Cu23   2.016       .  S
O15         C729   1.278       .  A
O16         Cu23   2.009       .  S
O16         C730   1.277       .  A
O17         Cu23   2.012       .  S
O17         C731   1.277       .  A
O18         Cu23   2.008       .  S
O18         C732   1.277       .  A
O19         Cu24   2.023       .  S
O19          C28   1.279       .  A
O20         Cu24   2.022       .  S
O20          C27   1.281       .  A
O21         Cu24   2.019       .  S
O21          C26   1.280       .  A
O22         Cu24   2.010       .  S
O22          C25   1.277       .  A
Cu23       Cu728   2.373   1_455  S
Cu24       Cu727   2.375       .  S
C25         O719   1.278       .  A
C25        C1050   1.474       .  S
C26         O720   1.277       .  A
C26        C1053   1.476       .  S
C27         O721   1.276       .  A
C27         C333   1.479       .  S
C28         O722   1.276       .  A
C28        C1033   1.471       .  S
O29        Cu389   2.011       .  S
O29          C39   1.277       .  A
O30         Cu37   2.013       .  S
O30          C40   1.279       .  A
O31         Cu37   2.004       .  S
O31         C393   1.276   1_545  A
O32        Cu389   2.006       .  S
O32         C394   1.276       .  A
O33         Cu38   2.016       .  S
O33         C394   1.279       .  A
O34        Cu390   2.017       .  S
O34         C393   1.279       .  A
O35        Cu390   2.003   1_545  S
O35          C40   1.276       .  A
O36         Cu38   2.008       .  S
O36          C39   1.278       .  A
Cu37        O381   2.002   1_545  S
Cu37        O384   2.007   1_545  S
Cu37       Cu390   2.375   1_545  S
Cu38        O386   2.016       .  S
Cu38        O387   2.008       .  S
Cu38       Cu389   2.375       .  S
C39         C321   1.476       .  S
C40         C325   1.474       .  S
C41         O383   1.277       .  A
C41         O386   1.279       .  A
C41         C317   1.475       .  S
C42         O384   1.276       .  A
C42         O385   1.279       .  A
C42         C314   1.473       .  S
O43         Cu51   2.008       .  S
O43          C53   1.278       .  A
O44         Cu51   2.013       .  S
O44          C54   1.277       .  A
O45         Cu51   2.011       .  S
O45          C55   1.277       .  A
O46         Cu51   2.014       .  S
O46          C56   1.278       .  A
O47         Cu52   2.014       .  S
O47          C56   1.279       .  A
O48         Cu52   2.012       .  S
O48          C55   1.278       .  A
O49         Cu52   2.003       .  S
O49          C54   1.278       .  A
O50         Cu52   2.012       .  S
O50          C53   1.278       .  A
Cu51        Cu52   2.374       .  S
C53         C322   1.476       .  S
C54         C326   1.475       .  S
C55         C305   1.471       .  S
C56         C310   1.479       .  S
O57        Cu417   2.009   1_545  S
O57         C771   1.277       .  A
O58         Cu65   2.006       .  S
O58         C772   1.278   1_455  A
O59         Cu65   2.018       .  S
O59        C1125   1.278       .  A
O60        Cu417   2.014       .  S
O60        C1126   1.279   1_455  A
O61         Cu66   2.010       .  S
O61         C422   1.277       .  A
O62        Cu418   2.029       .  S
O62         C421   1.280       .  A
O63        Cu418   2.002       .  S
O63          C68   1.276       .  A
O64         Cu66   2.007   1_545  S
O64          C67   1.278       .  A
Cu65        O409   2.008       .  S
Cu65        O412   2.019       .  S
Cu65      Cu1122   2.374   1_455  S
Cu66        O414   2.012       .  S
Cu66        O415   2.018       .  S
Cu66      Cu1121   2.374       .  S
C67         O761   1.277       .  A
C67         C301   1.471       .  S
C68         O762   1.280       .  A
C68         C297   1.475       .  S
C69        O1115   1.278       .  A
C69         O414   1.278       .  A
C69         C998   1.475       .  S
C70        O1116   1.276       .  A
C70         O413   1.281       .  A
C70        C1045   1.480       .  S
O71         Cu79   2.020       .  S
O71         C785   1.278   1_455  A
O72         Cu79   2.018       .  S
O72         C786   1.280   1_455  A
O73         Cu79   2.002       .  S
O73         C787   1.278   1_455  A
O74         Cu79   2.015       .  S
O74         C788   1.278       .  A
O75         Cu80   2.014       .  S
O75          C84   1.280       .  A
O76         Cu80   2.018       .  S
O76          C83   1.278       .  A
O77         Cu80   1.999       .  S
O77          C82   1.275       .  A
O78         Cu80   1.994       .  S
O78          C81   1.274       .  A
Cu79       Cu784   2.374   1_455  S
Cu80       Cu783   2.374       .  S
C81         O775   1.279       .  A
C81         C993   1.467       .  S
C82         O776   1.281       .  A
C82         C334   1.477       .  S
C83         O777   1.277       .  A
C83         C302   1.474       .  S
C84         O778   1.276       .  A
C84         C298   1.477       .  S
O85         Cu93   2.001       .  S
O85          C95   1.278       .  A
O86         Cu93   2.001       .  S
O86         C448   1.275       .  A
O87         Cu93   2.001       .  S
O87          C97   1.278       .  A
O88        Cu445   2.015   1_545  S
O88          C98   1.278       .  A
O89         Cu94   2.000   1_545  S
O89          C98   1.277       .  A
O90        Cu446   2.009       .  S
O90          C97   1.277       .  A
O91         Cu94   2.017       .  S
O91          C96   1.279       .  A
O92         Cu94   2.017       .  S
O92         C447   1.278       .  A
Cu93        O440   2.015       .  S
Cu93       Cu446   2.375       .  S
Cu94        O442   2.005       .  S
Cu94       Cu445   2.374       .  S
C95         O444   1.279       .  A
C95         C318   1.478       .  S
C96         O438   1.276       .  A
C96         C277   1.473       .  S
C97         C281   1.473       .  S
C98         C285   1.475       .  S
O99        Cu107   2.016       .  S
O99         C109   1.278       .  A
O100       Cu107   2.017       .  S
O100        C110   1.278       .  A
O101       Cu107   2.002       .  S
O101        C111   1.278       .  A
O102       Cu107   2.012       .  S
O102        C112   1.278       .  A
O103       Cu108   2.003       .  S
O103        C112   1.277       .  A
O104       Cu108   2.006       .  S
O104        C111   1.277       .  A
O105       Cu108   2.014       .  S
O105        C110   1.277       .  A
O106       Cu108   2.015       .  S
O106        C109   1.279       .  A
Cu107      Cu108   2.374       .  S
C109        C309   1.479       .  S
C110        C273   1.473       .  S
C111        C282   1.471       .  S
C112        C286   1.474       .  S
O113       Cu121   2.021       .  S
O113        C123   1.280       .  A
O114       Cu121   2.017       .  S
O114        C828   1.278       .  A
O115       Cu121   2.007       .  S
O115        C125   1.277       .  A
O116       Cu825   1.994       .  S
O116        C126   1.277       .  A
O117       Cu122   2.012   1_455  S
O117        C478   1.277       .  A
O118       Cu826   2.009       .  S
O118        C477   1.278       .  A
O119       Cu122   2.013       .  S
O119        C476   1.278   1_655  A
O120       Cu122   2.013       .  S
O120       C1179   1.278   1_655  A
Cu121       O820   1.999       .  S
Cu121     Cu1178   2.375   1_545  S
Cu122       O822   2.003       .  S
Cu122     Cu1177   2.374   1_655  S
C123       O1176   1.277   1_545  A
C123        C261   1.478       .  S
C124        O818   1.278       .  A
C124        O471   1.278   1_545  A
C124        C690   1.475       .  S
C125        O470   1.278   1_545  A
C125        C266   1.472       .  S
C126        O469   1.278   1_545  A
C126        C270   1.472   1_545  S
O127       Cu839   2.019       .  S
O127        C137   1.279       .  A
O128       Cu135   2.014       .  S
O128        C138   1.280       .  A
O129       Cu135   1.996       .  S
O129        C843   1.274       .  A
O130       Cu839   1.999       .  S
O130        C844   1.277       .  A
O131       Cu136   2.026       .  S
O131        C844   1.279       .  A
O132       Cu840   2.033       .  S
O132        C843   1.283       .  A
O133       Cu840   1.996       .  S
O133        C138   1.274       .  A
O134       Cu136   1.988       .  S
O134        C137   1.275       .  A
Cu135       O831   2.021   1_455  S
Cu135       O834   1.998       .  S
Cu135      Cu840   2.374       .  S
Cu136       O836   2.028       .  S
Cu136       O837   1.996       .  S
Cu136      Cu839   2.375       .  S
C137        C253   1.472       .  S
C138        C257   1.472       .  S
C139        O833   1.274       .  A
C139        O836   1.282       .  A
C139        C249   1.476       .  S
C140        O834   1.276       .  A
C140        O835   1.280       .  A
C140        C330   1.475       .  S
O141       Cu149   2.005       .  S
O141        C503   1.275       .  A
O142       Cu149   2.004       .  S
O142        C504   1.278       .  A
O143       Cu149   2.019       .  S
O143        C505   1.280       .  A
O144       Cu149   2.012       .  S
O144        C506   1.277       .  A
O145       Cu150   2.002       .  S
O145        C154   1.278       .  A
O146       Cu150   2.011       .  S
O146        C153   1.278       .  A
O147       Cu150   2.006       .  S
O147        C152   1.276       .  A
O148       Cu150   2.003       .  S
O148        C151   1.276       .  A
Cu149      Cu502   2.375       .  S
Cu150      Cu501   2.375   1_545  S
C151        O493   1.279   1_545  A
C151        C313   1.469       .  S
C152        O494   1.280   1_545  A
C152        C246   1.477       .  S
C153        O495   1.277   1_545  A
C153        C269   1.472       .  S
C154        O496   1.277   1_545  A
C154        C265   1.472   1_545  S
O155       Cu163   1.996       .  S
O155        C165   1.275       .  A
O156       Cu163   1.990       .  S
O156        C166   1.275       .  A
O157       Cu163   2.026       .  S
O157        C167   1.282       .  A
O158       Cu163   2.022       .  S
O158        C168   1.279       .  A
O159       Cu164   1.998       .  S
O159        C168   1.276       .  A
O160       Cu164   2.001       .  S
O160        C167   1.275       .  A
O161       Cu164   2.019       .  S
O161        C166   1.279       .  A
O162       Cu164   2.013       .  S
O162        C165   1.280       .  A
Cu163      Cu164   2.375       .  S
C165        C258   1.472       .  S
C166        C254   1.472       .  S
C167        C241   1.479       .  S
C168        C306   1.473       .  S
O169       Cu177   2.012       .  S
O169        C531   1.278       .  A
O170       Cu177   2.011   1_455  S
O170       C1236   1.278       .  A
O171       Cu177   2.021   1_455  S
O171        C533   1.280       .  A
O172       Cu881   2.021       .  S
O172        C534   1.280       .  A
O173       Cu178   2.008       .  S
O173        C182   1.277       .  A
O174       Cu882   2.014       .  S
O174        C181   1.277       .  A
O175       Cu178   2.014       .  S
O175        C180   1.277       .  A
O176       Cu178   2.015       .  S
O176        C883   1.278       .  A
Cu177       O876   2.026       .  S
Cu177     Cu1234   2.373       .  S
Cu178       O878   2.015       .  S
Cu178     Cu1233   2.373   1_545  S
C179        O521   1.278   1_545  A
C179        O880   1.278       .  A
C179        C293   1.476       .  S
C180       O1226   1.279       .  A
C180        C262   1.480       .  S
C181        O523   1.280   1_545  A
C181        C238   1.481       .  S
C182        O524   1.280   1_545  A
C182        C234   1.479       .  S
O183       Cu895   2.020       .  S
O183        C193   1.281       .  A
O184       Cu191   2.030       .  S
O184        C194   1.282       .  A
O185       Cu191   1.995       .  S
O185        C899   1.274       .  A
O186       Cu895   1.988       .  S
O186        C900   1.276       .  A
O187       Cu192   2.029       .  S
O187        C900   1.280       .  A
O188       Cu896   2.035       .  S
O188        C899   1.283       .  A
O189       Cu896   1.997       .  S
O189        C194   1.275       .  A
O190       Cu192   2.003       .  S
O190        C193   1.275       .  A
Cu191       O887   2.022   1_455  S
Cu191       O890   1.994       .  S
Cu191      Cu896   2.374       .  S
Cu192       O892   2.031       .  S
Cu192       O893   1.992       .  S
Cu192      Cu895   2.375       .  S
C193        C225   1.477       .  S
C194        C229   1.477       .  S
C195        O889   1.273       .  A
C195        O892   1.282       .  A
C195        C250   1.476       .  S
C196        O890   1.276       .  A
C196        O891   1.280       .  A
C196        C290   1.476       .  S
O197       Cu205   2.007       .  S
O197        C207   1.276       .  A
O198       Cu205   2.010       .  S
O198        C208   1.279   1_545  A
O199       Cu205   2.027       .  S
O199        C209   1.281   1_545  A
O200       Cu205   2.014       .  S
O200        C210   1.279   1_545  A
O201       Cu206   2.013       .  S
O201        C562   1.277       .  A
O202       Cu206   2.008       .  S
O202        C561   1.276       .  A
O203       Cu206   2.008       .  S
O203        C560   1.277       .  A
O204       Cu206   2.011       .  S
O204        C559   1.279       .  A
Cu205      Cu558   2.374   1_545  S
Cu206      Cu557   2.374       .  S
C207        O556   1.279   1_545  A
C207        C278   1.471       .  S
C208        O555   1.278       .  A
C208        C245   1.478       .  S
C209        O554   1.277       .  A
C209        C237   1.481       .  S
C210        O553   1.278       .  A
C210        C233   1.480       .  S
O211       Cu219   2.032       .  S
O211        C221   1.282       .  A
O212       Cu219   2.029       .  S
O212        C222   1.280       .  A
O213       Cu219   1.995       .  S
O213        C223   1.274       .  A
O214       Cu219   2.005       .  S
O214        C224   1.275       .  A
O215       Cu220   2.022       .  S
O215        C224   1.281       .  A
O216       Cu220   2.028       .  S
O216        C223   1.282       .  A
O217       Cu220   2.001       .  S
O217        C222   1.276       .  A
O218       Cu220   1.995       .  S
O218        C221   1.274       .  A
Cu219      Cu220   2.374       .  S
C221        C242   1.477       .  S
C222        C274   1.476       .  S
C223        C226   1.476       .  S
C224        C230   1.478       .  S
C225        C226   1.341       .  D
C225        H227   1.087       .  S
C226        H228   1.087       .  S
C229        C230   1.342       .  D
C229        H231   1.087       .  S
C230        H232   1.087       .  S
C233        C234   1.345   1_565  D
C233        H587   1.087       .  S
C234        H236   1.087       .  S
H235        C585   1.087       .  S
C237        C238   1.345   1_565  D
C237        H591   1.087       .  S
C238        H240   1.087       .  S
H239        C589   1.087       .  S
C241        C242   1.341       .  D
C241        H243   1.087       .  S
C242        H244   1.087       .  S
C245        C246   1.344   1_565  D
C245        H599   1.087       .  S
C246        H248   1.087       .  S
H247        C597   1.087       .  S
C249        C250   1.340       .  D
C249        H251   1.087       .  S
C250        H956   1.087       .  S
H252        C954   1.087       .  S
C253        C254   1.347       .  D
C253        H255   1.087       .  S
C254        H256   1.087       .  S
C257        C258   1.340       .  D
C257        H259   1.086       .  S
C258        H260   1.086       .  S
C261        C262   1.345       .  D
C261       H1319   1.087   1_545  S
C262        H264   1.087       .  S
H263       C1317   1.087   1_655  S
C265        C266   1.343   1_565  D
C265        H619   1.087       .  S
C266        H268   1.087       .  S
H267        C617   1.087       .  S
C269        C270   1.345   1_545  D
C269        H271   1.087       .  S
C270        H624   1.087       .  S
H272        C622   1.086       .  S
C273        C274   1.344       .  D
C273        H275   1.087       .  S
C274        H276   1.086       .  S
C277        C278   1.340   1_565  D
C277        H631   1.087       .  S
C278        H280   1.087       .  S
H279        C629   1.087       .  S
C281        C282   1.343       .  D
C281        H283   1.087       .  S
C282        H284   1.087       .  S
C285        C286   1.345       .  D
C285        H287   1.087       .  S
C286        H288   1.087       .  S
C289        C785   1.472       .  S
C289        C290   1.344   1_655  D
C289        H995   1.087       .  S
C290        H292   1.086       .  S
H291        C993   1.087       .  S
C293        C294   1.343   1_645  D
C293        H999   1.087       .  S
C294        C773   1.474       .  S
C294        H648   1.086       .  S
H295        C997   1.087       .  S
H296        C646   1.086       .  S
C297        C298   1.343       .  D
C297        H299   1.087       .  S
C298       H1004   1.087       .  S
H300       C1002   1.087       .  S
C301        C302   1.344       .  D
C301       H1007   1.087       .  S
C302        H304   1.087       .  S
H303       C1005   1.087       .  S
C305        C306   1.343       .  D
C305        H307   1.087       .  S
C306        H308   1.087       .  S
C309        C310   1.346   1_556  D
C309        H311   1.087   1_556  S
C310        H312   1.087       .  S
C313        C314   1.339   1_545  D
C313        H315   1.087       .  S
C314        H668   1.087       .  S
H316        C666   1.087       .  S
C317        C318   1.345   1_554  D
C317        H671   1.087   1_554  S
C318        H320   1.087   1_556  S
H319        C669   1.087   1_545  S
C321        C322   1.345       .  D
C321        H323   1.087       .  S
C322        H324   1.087       .  S
C325        C326   1.344       .  D
C325        H327   1.087       .  S
C326        H328   1.087       .  S
C329        C732   1.471       .  S
C329        C330   1.343       .  D
C329        H331   1.087       .  S
C330       H1036   1.086   1_455  S
H332       C1034   1.086       .  S
C333        C334   1.342   1_554  D
C333       H1039   1.087   1_554  S
C334        H336   1.087       .  S
H335       C1037   1.087   1_556  S
C337        C338   1.343   1_655  D
C337       H1043   1.087       .  S
C338        C476   1.474       .  S
C338        H692   1.087       .  S
H339       C1041   1.086       .  S
H340        C690   1.087       .  S
C341        C774   1.479       .  S
C341        C694   1.345   1_656  D
C341       H1047   1.087       .  S
C342        C693   1.345   1_454  D
C342        H344   1.087       .  S
H343       C1045   1.087       .  S
C345        C346   1.345   1_655  D
C345       H1051   1.088       .  S
C346        C729   1.480       .  S
C346        H348   1.088       .  S
H347       C1049   1.087       .  S
C349        C730   1.481       .  S
C349        C350   1.345   1_455  D
C349        H351   1.087       .  S
C350       H1056   1.087       .  S
H352       C1054   1.087       .  S
O353       Cu361   2.008       .  S
O353       C1067   1.276       .  A
O354       Cu361   2.008       .  S
O354        C716   1.277       .  A
O355       Cu361   2.029       .  S
O355       C1069   1.282       .  A
O356       C1070   1.277       .  A
O357       Cu362   2.027       .  S
O357        C366   1.281       .  A
O358        C365   1.279   1_455  A
O359       Cu362   2.015       .  S
O359        C364   1.278   1_455  A
O360       Cu362   2.011       .  S
Cu361      Cu714   2.373       .  S
Cu362      Cu713   2.373   1_455  S
C363       O1057   1.280   1_455  A
C363        C694   1.479       .  S
C364        O706   1.277       .  A
C364        C689   1.473       .  S
C365       O1059   1.278       .  A
C365        C702   1.481       .  S
C366       O1060   1.277   1_455  A
C366        C697   1.480   1_455  S
O367       Cu375   2.016       .  S
O367       C1081   1.278       .  A
O368       Cu375   2.009       .  S
O368       C1082   1.277       .  A
O369       Cu375   2.018       .  S
O369       C1083   1.278       .  A
O370       Cu375   2.016       .  S
O370       C1084   1.278       .  A
O371       Cu376   2.026       .  S
O371        C380   1.280       .  A
O372       Cu376   2.023       .  S
O372        C379   1.281       .  A
O373       Cu376   2.000       .  S
O373        C378   1.275       .  A
O374       Cu376   1.987       .  S
O374        C377   1.276       .  A
Cu375     Cu1080   2.373   1_455  S
Cu376     Cu1079   2.373       .  S
C377       O1071   1.281       .  A
C377       C1402   1.482       .  S
C378       O1072   1.282       .  A
C378       C1405   1.479       .  S
C379       O1073   1.274       .  A
C379        C685   1.474       .  S
C380       O1074   1.274       .  A
C380       C1385   1.468       .  S
O381        C391   1.276       .  A
O382       Cu389   1.999       .  S
O382        C392   1.277       .  A
O383       Cu389   2.006       .  S
O385       Cu390   2.016       .  S
O387        C392   1.277       .  A
O388       Cu390   2.008       .  S
O388        C391   1.278       .  A
C391        C673   1.472       .  S
C392        C677   1.471       .  S
C393        C669   1.474       .  S
C394        C666   1.472       .  S
O395       Cu403   2.001       .  S
O395        C405   1.278       .  A
O396       Cu403   2.006       .  S
O396        C406   1.277       .  A
O397       Cu403   2.001       .  S
O397        C407   1.276       .  A
O398       Cu403   2.001       .  S
O398        C408   1.276       .  A
O399       Cu404   2.022       .  S
O399        C408   1.280       .  A
O400       Cu404   2.023       .  S
O400        C407   1.279       .  A
O401       Cu404   2.000       .  S
O401        C406   1.277       .  A
O402       Cu404   2.009       .  S
O402        C405   1.277       .  A
Cu403      Cu404   2.375       .  S
C405        C674   1.473       .  S
C406        C678   1.471       .  S
C407        C657   1.472       .  S
C408        C662   1.475       .  S
O409       C1123   1.277       .  A
O410       Cu417   2.003       .  S
O410       C1124   1.278   1_455  A
O411       Cu417   2.015       .  S
O411        C773   1.277       .  A
O412        C774   1.280   1_455  A
O413       Cu418   2.029       .  S
O415        C420   1.278       .  A
O416       Cu418   1.988       .  S
O416        C419   1.276       .  A
Cu417      Cu770   2.374   1_455  S
Cu418      Cu769   2.374       .  S
C419       O1113   1.279       .  A
C419        C653   1.477       .  S
C420       O1114   1.278       .  A
C420        C649   1.477       .  S
C421        O763   1.276       .  A
C421       C1350   1.474       .  S
C422        O764   1.279       .  A
C422       C1397   1.477       .  S
O423       Cu431   2.023       .  S
O423       C1137   1.279   1_455  A
O424       Cu431   2.021       .  S
O424       C1138   1.280   1_455  A
O425       Cu431   1.998       .  S
O425       C1139   1.277   1_455  A
O426       Cu431   2.008       .  S
O426       C1140   1.277       .  A
O427       Cu432   2.016       .  S
O427        C436   1.279       .  A
O428       Cu432   2.003       .  S
O428        C435   1.277       .  A
O429       Cu432   2.008       .  S
O429        C434   1.276       .  A
O430       Cu432   2.009       .  S
O430        C433   1.277       .  A
Cu431     Cu1136   2.375   1_455  S
Cu432     Cu1135   2.375       .  S
C433       O1127   1.277       .  A
C433       C1345   1.468       .  S
C434       O1128   1.279       .  A
C434        C686   1.476       .  S
C435       O1129   1.278       .  A
C435        C654   1.472       .  S
C436       O1130   1.276       .  A
C436        C650   1.473       .  S
O437       Cu445   2.005       .  S
O437        C447   1.278       .  A
O438       Cu445   2.008       .  S
O439       Cu445   2.005       .  S
O439        C449   1.278       .  A
O440        C450   1.278       .  A
O441       Cu446   2.005       .  S
O441        C450   1.278       .  A
O442        C449   1.276       .  A
O443       Cu446   2.018       .  S
O443        C448   1.279       .  A
O444       Cu446   2.021       .  S
C447        C670   1.478       .  S
C448        C629   1.469       .  S
C449        C633   1.472       .  S
C450        C637   1.476       .  S
O451       Cu459   2.015       .  S
O451        C461   1.277       .  A
O452       Cu459   2.016       .  S
O452        C462   1.278       .  A
O453       Cu459   2.003       .  S
O453        C463   1.278       .  A
O454       Cu459   2.017       .  S
O454        C464   1.278       .  A
O455       Cu460   2.005       .  S
O455        C464   1.278       .  A
O456       Cu460   2.006       .  S
O456        C463   1.277       .  A
O457       Cu460   2.009       .  S
O457        C462   1.277       .  A
O458       Cu460   2.007       .  S
O458        C461   1.279       .  A
Cu459      Cu460   2.374       .  S
C461        C661   1.478       .  S
C462        C625   1.470       .  S
C463        C634   1.472       .  S
C464        C638   1.477       .  S
O465       Cu473   2.020       .  S
O465        C475   1.280       .  A
O466       Cu473   2.017       .  S
O466       C1180   1.278       .  A
O467       Cu473   2.000       .  S
O467        C477   1.276       .  A
O468      Cu1177   2.000       .  S
O468        C478   1.278       .  A
O469       Cu474   2.013   1_455  S
O470      Cu1178   2.001       .  S
O471       Cu474   2.010   1_455  S
O472       Cu474   2.008       .  S
O472        C827   1.277   1_665  A
Cu473      O1172   2.011       .  S
Cu473      Cu826   2.375       .  S
Cu474      O1174   2.007       .  S
Cu474      Cu825   2.375   1_665  S
C475        O824   1.277       .  A
C475        C613   1.480       .  S
C476       O1170   1.278       .  A
C477        C618   1.471       .  S
C478        C622   1.475       .  S
O479      Cu1191   2.010       .  S
O479        C489   1.278       .  A
O480       Cu487   2.013       .  S
O480        C490   1.280       .  A
O481       Cu487   1.998       .  S
O481       C1195   1.275       .  A
O482      Cu1191   1.993       .  S
O482       C1196   1.276       .  A
O483       Cu488   2.028       .  S
O483       C1196   1.279       .  A
O484      Cu1192   2.034       .  S
O484       C1195   1.282   1_655  A
O485      Cu1192   1.996   1_455  S
O485        C490   1.275       .  A
O486       Cu488   1.994       .  S
O486        C489   1.276       .  A
Cu487      O1183   2.022   1_455  S
Cu487      O1186   1.999       .  S
Cu487     Cu1192   2.375   1_455  S
Cu488      O1188   2.031       .  S
Cu488      O1189   2.001       .  S
Cu488     Cu1191   2.375       .  S
C489        C605   1.469       .  S
C490        C609   1.471       .  S
C491       O1185   1.274       .  A
C491       O1188   1.282       .  A
C491        C601   1.476       .  S
C492       O1186   1.276       .  A
C492       O1187   1.279   1_455  A
C492        C682   1.474       .  S
O493       Cu501   2.019       .  S
O494       Cu501   2.018       .  S
O495       Cu501   1.997       .  S
O496       Cu501   2.007       .  S
O497       Cu502   2.000       .  S
O497        C506   1.278       .  A
O498       Cu502   1.991       .  S
O498        C505   1.274       .  A
O499       Cu502   2.018       .  S
O499        C504   1.278       .  A
O500       Cu502   2.017       .  S
O500        C503   1.279       .  A
C503        C665   1.470       .  S
C504        C598   1.478       .  S
C505        C621   1.470       .  S
C506        C617   1.474       .  S
O507       Cu515   1.996       .  S
O507        C517   1.274       .  A
O508       Cu515   1.985       .  S
O508        C518   1.275       .  A
O509       Cu515   2.022       .  S
O509        C519   1.282       .  A
O510       Cu515   2.020       .  S
O510        C520   1.278       .  A
O511       Cu516   2.005       .  S
O511        C520   1.278       .  A
O512       Cu516   2.004       .  S
O512        C519   1.275       .  A
O513       Cu516   2.020       .  S
O513        C518   1.279       .  A
O514       Cu516   2.013       .  S
O514        C517   1.280       .  A
Cu515      Cu516   2.375       .  S
C517        C610   1.472       .  S
C518        C606   1.472       .  S
C519        C593   1.480       .  S
C520        C658   1.475       .  S
O521       Cu529   2.015   1_655  S
O522       Cu529   2.013       .  S
O522        C884   1.279   1_565  A
O523       Cu529   2.021       .  S
O524      Cu1233   2.021       .  S
O525       Cu530   2.003       .  S
O525        C534   1.276       .  A
O526      Cu1234   2.009   1_455  S
O526        C533   1.276       .  A
O527       Cu530   2.020       .  S
O527        C532   1.278       .  A
O528       Cu530   2.024       .  S
O528       C1235   1.279       .  A
Cu529      O1228   2.022   1_455  S
Cu529      Cu882   2.373   1_565  S
Cu530      O1230   2.014       .  S
Cu530      Cu881   2.373       .  S
C531       O1232   1.279       .  A
C531        C645   1.478       .  S
C532        O874   1.279       .  A
C532        C614   1.481       .  S
C533        C590   1.479       .  S
C534        C586   1.476       .  S
O535      Cu1247   2.027       .  S
O535        C545   1.282       .  A
O536       Cu543   2.027       .  S
O536        C546   1.281       .  A
O537       Cu543   2.003       .  S
O537       C1251   1.275       .  A
O538      Cu1247   1.996       .  S
O538       C1252   1.276       .  A
O539       Cu544   2.023       .  S
O539       C1252   1.279       .  A
O540      Cu1248   2.028       .  S
O540       C1251   1.282       .  A
O541      Cu1248   1.994       .  S
O541        C546   1.274       .  A
O542       Cu544   1.993       .  S
O542        C545   1.274       .  A
Cu543      O1239   2.020   1_455  S
Cu543      O1242   2.005       .  S
Cu543     Cu1248   2.374       .  S
Cu544      O1244   2.027       .  S
Cu544      O1245   2.003       .  S
Cu544     Cu1247   2.374       .  S
C545        C577   1.475       .  S
C546        C581   1.475       .  S
C547       O1241   1.274       .  A
C547       O1244   1.282       .  A
C547        C602   1.477       .  S
C548       O1242   1.277       .  A
C548       O1243   1.279       .  A
C548        C642   1.476       .  S
O549       Cu557   2.008       .  S
O549        C559   1.276       .  A
O550       Cu557   2.012       .  S
O550        C560   1.278       .  A
O551       Cu557   2.024       .  S
O551        C561   1.281       .  A
O552       Cu557   2.009       .  S
O552        C562   1.279       .  A
O553       Cu558   2.017       .  S
O554       Cu558   2.010       .  S
O555       Cu558   2.014       .  S
O556       Cu558   2.018       .  S
C559        C630   1.472       .  S
C560        C597   1.475       .  S
C561        C589   1.479       .  S
C562        C585   1.478       .  S
O563       Cu571   2.038       .  S
O563        C573   1.283       .  A
O564       Cu571   2.033       .  S
O564        C574   1.281       .  A
O565       Cu571   1.996       .  S
O565        C575   1.274       .  A
O566       Cu571   2.004       .  S
O566        C576   1.275       .  A
O567       Cu572   2.017       .  S
O567        C576   1.280       .  A
O568       Cu572   2.023       .  S
O568        C575   1.281       .  A
O569       Cu572   1.989       .  S
O569        C574   1.275       .  A
O570       Cu572   1.988       .  S
O570        C573   1.273       .  A
Cu571      Cu572   2.374       .  S
C573        C594   1.476       .  S
C574        C626   1.475       .  S
C575        C578   1.475       .  S
C576        C582   1.476       .  S
C577        C578   1.340       .  D
C577        H579   1.087       .  S
C578        H580   1.086       .  S
C581        C582   1.341       .  D
C581        H583   1.087       .  S
C582        H584   1.087       .  S
C585        C586   1.344       .  D
C586        H588   1.087       .  S
C589        C590   1.344       .  D
C590        H592   1.087       .  S
C593        C594   1.341       .  D
C593        H595   1.086       .  S
C594        H596   1.087       .  S
C597        C598   1.346       .  D
C598        H600   1.087       .  S
C601        C602   1.340       .  D
C601        H603   1.087       .  S
C602       H1308   1.087       .  S
H604       C1306   1.087   1_655  S
C605        C606   1.346       .  D
C605        H607   1.087       .  S
C606        H608   1.087       .  S
C609        C610   1.340       .  D
C609        H611   1.086       .  S
C610        H612   1.086       .  S
C613        C614   1.346       .  D
C613        H967   1.087       .  S
C614        H616   1.087       .  S
H615        C965   1.087   1_665  S
C617        C618   1.343       .  D
C618        H620   1.087       .  S
C621        C622   1.342       .  D
C621        H623   1.087       .  S
C625        C626   1.345       .  D
C625        H627   1.087       .  S
C626        H628   1.086       .  S
C629        C630   1.339       .  D
C630        H632   1.087       .  S
C633        C634   1.343       .  D
C633        H635   1.087       .  S
C634        H636   1.087       .  S
C637        C638   1.346       .  D
C637        H639   1.087       .  S
C638        H640   1.087       .  S
C641       C1137   1.473       .  S
C641        C642   1.343   1_655  D
C641       H1347   1.087       .  S
C642        H644   1.086       .  S
H643       C1345   1.087       .  S
C645        C646   1.345   1_655  D
C645       H1351   1.087       .  S
C646       C1125   1.475       .  S
H647       C1349   1.087       .  S
C649        C650   1.344       .  D
C649        H651   1.087       .  S
C650       H1356   1.088       .  S
H652       C1354   1.087       .  S
C653        C654   1.346       .  D
C653       H1359   1.087       .  S
C654        H656   1.088       .  S
H655       C1357   1.087       .  S
C657        C658   1.342       .  D
C657        H659   1.087       .  S
C658        H660   1.087       .  S
C661        C662   1.344   1_556  D
C661        H663   1.087   1_556  S
C662        H664   1.087   1_554  S
C665        C666   1.339       .  D
C665        H667   1.087       .  S
C669        C670   1.344   1_554  D
C670        H672   1.087   1_556  S
C673        C674   1.343       .  D
C673        H675   1.087       .  S
C674        H676   1.087       .  S
C677        C678   1.343       .  D
C677        H679   1.087       .  S
C678        H680   1.087       .  S
C681       C1084   1.473       .  S
C681        C682   1.344       .  D
C681        H683   1.087       .  S
C682       H1388   1.086   1_455  S
H684       C1386   1.087       .  S
C685        C686   1.342   1_554  D
C685       H1391   1.087   1_554  S
C686        H688   1.087       .  S
H687       C1389   1.087       .  S
C689        C690   1.343   1_665  D
C689       H1395   1.087       .  S
H691       C1393   1.087       .  S
C693       C1126   1.478       .  S
C693       H1399   1.087   1_556  S
C694        H696   1.087       .  S
H695       C1397   1.087       .  S
C697        C698   1.345   1_655  D
C697       H1403   1.088       .  S
C698       C1081   1.481       .  S
C698        H700   1.087       .  S
H699       C1401   1.088       .  S
C701       C1082   1.480       .  S
C701        C702   1.345   1_455  D
C701        H703   1.087       .  S
C702       H1408   1.087       .  S
H704       C1406   1.087       .  S
O705       Cu713   2.016       .  S
O706       Cu713   2.015       .  S
O707       Cu713   2.016   1_545  S
O708      Cu1065   2.009       .  S
O709       Cu714   1.985       .  S
O709        C718   1.275       .  A
O710      Cu1066   2.012   1_545  S
O710        C717   1.279       .  A
O711       Cu714   2.023       .  S
O711        C716   1.279       .  A
O712       Cu714   2.026       .  S
O712       C1067   1.281       .  A
Cu713      O1060   2.008       .  S
Cu714      O1062   1.998       .  S
C715       O1064   1.278       .  A
C715       C1046   1.478       .  S
C716       C1041   1.475       .  S
C717       C1054   1.477       .  S
C718       C1049   1.480       .  S
O719       Cu727   2.012       .  S
O720       Cu727   2.005       .  S
O721       Cu727   2.006       .  S
O722       Cu727   2.004       .  S
O723       Cu728   2.018       .  S
O723        C732   1.278   1_655  A
O724       Cu728   2.018       .  S
O724        C731   1.279   1_655  A
O725       Cu728   2.027       .  S
O725        C730   1.281   1_655  A
O726       Cu728   2.015       .  S
O726        C729   1.279   1_655  A
C731       C1037   1.479       .  S
O733      Cu1093   2.000       .  S
O733        C743   1.275       .  A
O734       Cu741   2.010   1_545  S
O734        C744   1.278       .  A
O735       Cu741   2.015       .  S
O735       C1097   1.278       .  A
O736      Cu1093   2.020       .  S
O736       C1098   1.278       .  A
O737       Cu742   2.012       .  S
O737       C1098   1.278       .  A
O738      Cu1094   2.013       .  S
O738       C1097   1.279       .  A
O739      Cu1094   2.004   1_545  S
O739        C744   1.277       .  A
O740       Cu742   2.014       .  S
O740        C743   1.279       .  A
Cu741      O1085   1.999       .  S
Cu741      O1088   2.016       .  S
Cu741     Cu1094   2.375       .  S
Cu742      O1090   2.013       .  S
Cu742      O1091   2.002       .  S
Cu742     Cu1093   2.375       .  S
C743       C1025   1.473       .  S
C744       C1029   1.473       .  S
C745       O1087   1.279       .  A
C745       O1090   1.278       .  A
C745       C1021   1.480       .  S
C746       O1088   1.278       .  A
C746       O1089   1.278       .  A
C746       C1018   1.475       .  S
O747       Cu755   2.005       .  S
O747        C757   1.278       .  A
O748       Cu755   2.012       .  S
O748        C758   1.277       .  A
O749       Cu755   2.019       .  S
O749        C759   1.279       .  A
O750       Cu755   2.020       .  S
O750        C760   1.278       .  A
O751       Cu756   2.016       .  S
O751        C760   1.279       .  A
O752       Cu756   2.016       .  S
O752        C759   1.278       .  A
O753       Cu756   2.002       .  S
O753        C758   1.278       .  A
O754       Cu756   2.008       .  S
O754        C757   1.277       .  A
Cu755      Cu756   2.374       .  S
C757       C1026   1.474       .  S
C758       C1030   1.475       .  S
C759       C1009   1.477       .  S
C760       C1014   1.483       .  S
O761      Cu1121   2.004   1_545  S
O762       Cu769   2.019       .  S
O763       Cu769   2.006       .  S
O764      Cu1121   2.016       .  S
O765       Cu770   2.013       .  S
O765       C1126   1.277       .  A
O766      Cu1122   2.016       .  S
O766       C1125   1.278   1_655  A
O767      Cu1122   2.014       .  S
O767        C772   1.278       .  A
O768       Cu770   2.001   1_545  S
O768        C771   1.278   1_655  A
Cu769      O1113   2.026       .  S
Cu769      O1116   2.003       .  S
Cu770      O1118   2.016       .  S
Cu770      O1119   2.012       .  S
C771       C1005   1.473       .  S
C772       C1001   1.475       .  S
C773       O1118   1.278   1_455  A
C774       O1117   1.277       .  A
O775       Cu783   2.025       .  S
O776       Cu783   2.027       .  S
O777       Cu783   1.993       .  S
O778       Cu783   2.007       .  S
O779       Cu784   2.004       .  S
O779        C788   1.278   1_655  A
O780       Cu784   2.008       .  S
O780        C787   1.277       .  A
O781       Cu784   2.012       .  S
O781        C786   1.277       .  A
O782       Cu784   2.009       .  S
O782        C785   1.277       .  A
C786       C1038   1.479       .  S
C787       C1006   1.472       .  S
C788       C1002   1.476       .  S
O789       Cu797   2.012       .  S
O789        C799   1.278       .  A
O790       Cu797   2.013       .  S
O790       C1152   1.277       .  A
O791       Cu797   2.001       .  S
O791        C801   1.278       .  A
O792      Cu1149   2.013   1_545  S
O792        C802   1.278       .  A
O793       Cu798   2.003       .  S
O793        C802   1.278       .  A
O794      Cu1150   2.009       .  S
O794        C801   1.277       .  A
O795       Cu798   2.016       .  S
O795        C800   1.279   1_545  A
O796       Cu798   2.013       .  S
O796       C1151   1.278   1_545  A
Cu797      O1144   2.012       .  S
Cu797     Cu1150   2.374       .  S
Cu798      O1146   2.008   1_545  S
Cu798     Cu1149   2.374   1_545  S
C799       O1148   1.279       .  A
C799       C1022   1.480       .  S
C800       O1142   1.277       .  A
C800        C981   1.475       .  S
C801        C985   1.472       .  S
C802        C989   1.475       .  S
O803       Cu811   2.012       .  S
O803        C813   1.277       .  A
O804       Cu811   2.012       .  S
O804        C814   1.277       .  A
O805       Cu811   2.002       .  S
O805        C815   1.278       .  A
O806       Cu811   2.011       .  S
O806        C816   1.278       .  A
O807       Cu812   2.006       .  S
O807        C816   1.278       .  A
O808       Cu812   2.008       .  S
O808        C815   1.277       .  A
O809       Cu812   2.023       .  S
O809        C814   1.279       .  A
O810       Cu812   2.025       .  S
O810        C813   1.280       .  A
Cu811      Cu812   2.374       .  S
C813       C1013   1.480       .  S
C814        C977   1.476       .  S
C815        C986   1.472       .  S
C816        C990   1.474       .  S
O817       Cu825   2.020       .  S
O817        C827   1.280       .  A
O818       Cu825   2.019       .  S
O819       Cu825   2.004   1_655  S
O819        C829   1.276       .  A
O820        C830   1.277       .  A
O821       Cu826   1.996       .  S
O821       C1182   1.276       .  A
O822       C1181   1.278       .  A
O823       Cu826   2.016       .  S
O823       C1180   1.278       .  A
O824       Cu826   2.012       .  S
C827        C965   1.478       .  S
C828       O1175   1.278   1_545  A
C828       C1394   1.475       .  S
C829       O1174   1.278   1_545  A
C829        C970   1.472       .  S
C830       O1173   1.277   1_545  A
C830        C974   1.469       .  S
O831        C841   1.279       .  A
O832       Cu839   2.012       .  S
O832        C842   1.280       .  A
O833       Cu839   1.995       .  S
O835       Cu840   2.028       .  S
O837        C842   1.274       .  A
O838       Cu840   1.989   1_655  S
O838        C841   1.275       .  A
C841        C957   1.473       .  S
C842        C961   1.471       .  S
C843        C953   1.479       .  S
C844       C1034   1.476       .  S
O845       Cu853   2.017       .  S
O845       C1207   1.278       .  A
O846       Cu853   2.017       .  S
O846       C1208   1.279       .  A
O847       Cu853   1.988       .  S
O847       C1209   1.277       .  A
O848       Cu853   2.003       .  S
O848       C1210   1.276       .  A
O849       Cu854   2.004       .  S
O849        C858   1.278       .  A
O850       Cu854   2.011       .  S
O850        C857   1.277       .  A
O851       Cu854   2.010       .  S
O851        C856   1.277       .  A
O852       Cu854   2.011       .  S
O852        C855   1.277       .  A
Cu853     Cu1206   2.374       .  S
Cu854     Cu1205   2.375   1_545  S
C855       O1197   1.279   1_545  A
C855       C1017   1.473       .  S
C856       O1198   1.280   1_545  A
C856        C950   1.479       .  S
C857       O1199   1.277   1_545  A
C857        C973   1.471       .  S
C858       O1200   1.276   1_545  A
C858        C969   1.473   1_545  S
O859       Cu867   1.996       .  S
O859        C869   1.275       .  A
O860       Cu867   1.991       .  S
O860        C870   1.275       .  A
O861       Cu867   2.030       .  S
O861        C871   1.282       .  A
O862       Cu867   2.026       .  S
O862        C872   1.279       .  A
O863       Cu868   2.007       .  S
O863        C872   1.277       .  A
O864       Cu868   2.005       .  S
O864        C871   1.276       .  A
O865       Cu868   2.020       .  S
O865        C870   1.279       .  A
O866       Cu868   2.009       .  S
O866        C869   1.279       .  A
Cu867      Cu868   2.375       .  S
C869        C962   1.470       .  S
C870        C958   1.472       .  S
C871        C945   1.481       .  S
C872       C1010   1.476       .  S
O873       Cu881   2.011       .  S
O873       C1235   1.278       .  A
O874       Cu881   2.013       .  S
O875       Cu881   2.016       .  S
O875       C1237   1.280       .  A
O876       C1238   1.281       .  A
O877       Cu882   2.004   1_655  S
O877        C886   1.276       .  A
O878        C885   1.277       .  A
O879       Cu882   2.014       .  S
O879        C884   1.277       .  A
O880       Cu882   2.016   1_655  S
C883       O1225   1.278   1_545  A
C883        C997   1.475       .  S
C884        C966   1.479       .  S
C885       O1227   1.279       .  A
C885        C942   1.479       .  S
C886       O1228   1.280   1_545  A
C886        C938   1.477       .  S
O887        C897   1.281       .  A
O888       Cu895   2.023       .  S
O888        C898   1.281       .  A
O889       Cu895   1.990       .  S
O891       Cu896   2.031       .  S
O893        C898   1.274       .  A
O894       Cu896   2.005   1_655  S
O894        C897   1.275       .  A
C897        C929   1.479       .  S
C898        C933   1.473       .  S
C899        C954   1.478       .  S
C900        C994   1.476       .  S
O901       Cu909   2.011       .  S
O901        C911   1.276       .  A
O902       Cu909   2.013       .  S
O902        C912   1.279   1_545  A
O903       Cu909   2.024       .  S
O903        C913   1.280       .  A
O904       Cu909   2.013       .  S
O904        C914   1.279   1_545  A
O905       Cu910   2.007       .  S
O905       C1266   1.276       .  A
O906       Cu910   1.998       .  S
O906       C1265   1.275       .  A
O907       Cu910   2.018       .  S
O907       C1264   1.278       .  A
O908       Cu910   2.021       .  S
O908       C1263   1.279       .  A
Cu909     Cu1262   2.374   1_545  S
Cu910     Cu1261   2.373       .  S
C911       O1260   1.279   1_545  A
C911        C982   1.474       .  S
C912       O1259   1.278       .  A
C912        C949   1.480       .  S
C913       O1258   1.276   1_545  A
C913        C941   1.476       .  S
C914       O1257   1.277       .  A
C914        C937   1.478       .  S
O915       Cu923   2.034       .  S
O915        C925   1.282       .  A
O916       Cu923   2.030       .  S
O916        C926   1.280       .  A
O917       Cu923   1.996       .  S
O917        C927   1.274       .  A
O918       Cu923   1.999       .  S
O918        C928   1.275       .  A
O919       Cu924   2.017       .  S
O919        C928   1.281       .  A
O920       Cu924   2.030       .  S
O920        C927   1.282       .  A
O921       Cu924   2.005       .  S
O921        C926   1.276       .  A
O922       Cu924   2.001       .  S
O922        C925   1.275       .  A
Cu923      Cu924   2.374       .  S
C925        C946   1.480       .  S
C926        C978   1.477       .  S
C927        C930   1.477       .  S
C928        C934   1.474       .  S
C929        C930   1.341       .  D
C929        H931   1.086       .  S
C930        H932   1.087       .  S
C933        C934   1.340       .  D
C933        H935   1.087       .  S
C934        H936   1.087       .  S
C937        C938   1.344   1_565  D
C937       H1291   1.087       .  S
C938        H940   1.087       .  S
H939       C1289   1.087       .  S
C941        C942   1.344       .  D
C941       H1295   1.087   1_545  S
C942        H944   1.087       .  S
H943       C1293   1.087       .  S
C945        C946   1.343       .  D
C945        H947   1.087       .  S
C946        H948   1.087       .  S
C949        C950   1.346   1_565  D
C949       H1303   1.087       .  S
C950        H952   1.087       .  S
H951       C1301   1.087       .  S
C953        C954   1.340       .  D
C953        H955   1.087       .  S
C957        C958   1.347       .  D
C957        H959   1.087       .  S
C958        H960   1.087       .  S
C961        C962   1.340       .  D
C961        H963   1.086       .  S
C962        H964   1.086       .  S
C965        C966   1.345       .  D
C966        H968   1.087       .  S
C969        C970   1.343   1_565  D
C969       H1323   1.087       .  S
C970        H972   1.087       .  S
H971       C1321   1.087       .  S
C973        C974   1.344       .  D
C973        H975   1.087       .  S
C974       H1328   1.087   1_545  S
H976       C1326   1.087       .  S
C977        C978   1.346       .  D
C977        H979   1.087       .  S
C978        H980   1.086       .  S
C981        C982   1.341   1_565  D
C981       H1335   1.087       .  S
C982        H984   1.087       .  S
H983       C1333   1.087       .  S
C985        C986   1.344       .  D
C985        H987   1.087       .  S
C986        H988   1.087       .  S
C989        C990   1.345       .  D
C989        H991   1.087       .  S
C990        H992   1.087       .  S
C993        C994   1.343       .  D
C994        H996   1.086       .  S
C997        C998   1.343   1_545  D
C998       H1352   1.086       .  S
H1000      C1350   1.087       .  S
C1001      C1002   1.345   1_655  D
C1001      H1003   1.087       .  S
C1005      C1006   1.344   1_455  D
C1006      H1008   1.087       .  S
C1009      C1010   1.345       .  D
C1009      H1011   1.087       .  S
C1010      H1012   1.086       .  S
C1013      C1014   1.346   1_556  D
C1013      H1015   1.087   1_556  S
C1014      H1016   1.087   1_554  S
C1017      C1018   1.342   1_545  D
C1017      H1019   1.087       .  S
C1018      H1372   1.087       .  S
H1020      C1370   1.087       .  S
C1021      C1022   1.347   1_554  D
C1021      H1375   1.087   1_554  S
C1022      H1024   1.087   1_556  S
H1023      C1373   1.087   1_556  S
C1025      C1026   1.343       .  D
C1025      H1027   1.087       .  S
C1026      H1028   1.087       .  S
C1029      C1030   1.344       .  D
C1029      H1031   1.087       .  S
C1030      H1032   1.087       .  S
C1033      C1034   1.343       .  D
C1033      H1035   1.087       .  S
C1037      C1038   1.345   1_454  D
C1038      H1040   1.087   1_556  S
C1041      C1042   1.343       .  D
C1042      C1180   1.475       .  S
C1042      H1396   1.087       .  S
H1044      C1394   1.087       .  S
C1045      C1398   1.343   1_556  D
C1046      C1397   1.345   1_554  D
C1046      H1048   1.087   1_554  S
C1049      C1050   1.349       .  D
C1050      H1052   1.088       .  S
C1053      C1054   1.344       .  D
C1053      H1055   1.087       .  S
O1057     Cu1065   2.018       .  S
O1058     Cu1065   2.017       .  S
O1059     Cu1065   2.017       .  S
O1061     Cu1066   2.025       .  S
O1061      C1070   1.279       .  A
O1062      C1069   1.275       .  A
O1063     Cu1066   2.015       .  S
O1063      C1068   1.279       .  A
O1064     Cu1066   2.013       .  S
C1067      C1398   1.480       .  S
C1068      C1393   1.472       .  S
C1069      C1406   1.478       .  S
C1070      C1401   1.474       .  S
O1071     Cu1079   2.037       .  S
O1072     Cu1079   2.028       .  S
O1073     Cu1079   1.994       .  S
O1074     Cu1079   1.994       .  S
O1075     Cu1080   2.012       .  S
O1075      C1084   1.278   1_655  A
O1076     Cu1080   2.010       .  S
O1076      C1083   1.279   1_655  A
O1077     Cu1080   2.027       .  S
O1077      C1082   1.281   1_655  A
O1078     Cu1080   2.017       .  S
O1078      C1081   1.280   1_655  A
C1083      C1389   1.480       .  S
O1085      C1095   1.276       .  A
O1086     Cu1093   2.008       .  S
O1086      C1096   1.278       .  A
O1087     Cu1093   2.020       .  S
O1089     Cu1094   2.014       .  S
O1091      C1096   1.276       .  A
O1092     Cu1094   2.016       .  S
O1092      C1095   1.279       .  A
C1095      C1377   1.473       .  S
C1096      C1381   1.471       .  S
C1097      C1373   1.478       .  S
C1098      C1370   1.476       .  S
O1099     Cu1107   2.004       .  S
O1099      C1109   1.278       .  A
O1100     Cu1107   2.010       .  S
O1100      C1110   1.277       .  A
O1101     Cu1107   2.013       .  S
O1101      C1111   1.278       .  A
O1102     Cu1107   2.012       .  S
O1102      C1112   1.277       .  A
O1103     Cu1108   2.016       .  S
O1103      C1112   1.279       .  A
O1104     Cu1108   2.019       .  S
O1104      C1111   1.279       .  A
O1105     Cu1108   2.001       .  S
O1105      C1110   1.278       .  A
O1106     Cu1108   2.010       .  S
O1106      C1109   1.277       .  A
Cu1107    Cu1108   2.374       .  S
C1109      C1378   1.475       .  S
C1110      C1382   1.474       .  S
C1111      C1361   1.475       .  S
C1112      C1366   1.478       .  S
O1114     Cu1121   1.999       .  S
O1115     Cu1121   2.020       .  S
O1117     Cu1122   2.012       .  S
O1119      C1124   1.277       .  A
O1120     Cu1122   2.000       .  S
O1120      C1123   1.277   1_655  A
C1123      C1357   1.472       .  S
C1124      C1353   1.474       .  S
O1127     Cu1135   2.010       .  S
O1128     Cu1135   2.011       .  S
O1129     Cu1135   2.013       .  S
O1130     Cu1135   2.002       .  S
O1131     Cu1136   2.006       .  S
O1131      C1140   1.278   1_655  A
O1132     Cu1136   2.011       .  S
O1132      C1139   1.277       .  A
O1133     Cu1136   2.009       .  S
O1133      C1138   1.277       .  A
O1134     Cu1136   2.005       .  S
O1134      C1137   1.276       .  A
C1138      C1390   1.478       .  S
C1139      C1358   1.472       .  S
C1140      C1354   1.473       .  S
O1141     Cu1149   2.013       .  S
O1141      C1151   1.279       .  A
O1142     Cu1149   2.014       .  S
O1143     Cu1149   2.002       .  S
O1143      C1153   1.278       .  A
O1144      C1154   1.278       .  A
O1145     Cu1150   2.003       .  S
O1145      C1154   1.278       .  A
O1146      C1153   1.277       .  A
O1147     Cu1150   2.022       .  S
O1147      C1152   1.279       .  A
O1148     Cu1150   2.020       .  S
C1151      C1374   1.478       .  S
C1152      C1333   1.476       .  S
C1153      C1337   1.472       .  S
C1154      C1341   1.474       .  S
O1155     Cu1163   2.015       .  S
O1155      C1165   1.278       .  A
O1156     Cu1163   2.015       .  S
O1156      C1166   1.278       .  A
O1157     Cu1163   2.001       .  S
O1157      C1167   1.278       .  A
O1158     Cu1163   2.013       .  S
O1158      C1168   1.278       .  A
O1159     Cu1164   2.003       .  S
O1159      C1168   1.278       .  A
O1160     Cu1164   2.007       .  S
O1160      C1167   1.277       .  A
O1161     Cu1164   2.012       .  S
O1161      C1166   1.277       .  A
O1162     Cu1164   2.014       .  S
O1162      C1165   1.279       .  A
Cu1163    Cu1164   2.375       .  S
C1165      C1365   1.479       .  S
C1166      C1329   1.471       .  S
C1167      C1338   1.472       .  S
C1168      C1342   1.474       .  S
O1169     Cu1177   2.019       .  S
O1169      C1179   1.279       .  A
O1170     Cu1177   2.015       .  S
O1171     Cu1177   2.009   1_655  S
O1171      C1181   1.277       .  A
O1172      C1182   1.278       .  A
O1173     Cu1178   2.005       .  S
O1175     Cu1178   2.011       .  S
O1176     Cu1178   2.008       .  S
C1179      C1317   1.479       .  S
C1181      C1322   1.474       .  S
C1182      C1326   1.469       .  S
O1183      C1193   1.279       .  A
O1184     Cu1191   2.010       .  S
O1184      C1194   1.279       .  A
O1185     Cu1191   1.991       .  S
O1187     Cu1192   2.027       .  S
O1189      C1194   1.275       .  A
O1190     Cu1192   1.989       .  S
O1190      C1193   1.276       .  A
C1193      C1309   1.474       .  S
C1194      C1313   1.472       .  S
C1195      C1305   1.479       .  S
C1196      C1386   1.477       .  S
O1197     Cu1205   2.020       .  S
O1198     Cu1205   2.021       .  S
O1199     Cu1205   1.992       .  S
O1200     Cu1205   2.006       .  S
O1201     Cu1206   2.011       .  S
O1201      C1210   1.279       .  A
O1202     Cu1206   2.017       .  S
O1202      C1209   1.278       .  A
O1203     Cu1206   2.015       .  S
O1203      C1208   1.278       .  A
O1204     Cu1206   2.016       .  S
O1204      C1207   1.277       .  A
C1207      C1369   1.473       .  S
C1208      C1302   1.480       .  S
C1209      C1325   1.474       .  S
C1210      C1321   1.472       .  S
O1211     Cu1219   2.002       .  S
O1211      C1221   1.276       .  A
O1212     Cu1219   1.996       .  S
O1212      C1222   1.276       .  A
O1213     Cu1219   2.026       .  S
O1213      C1223   1.282       .  A
O1214     Cu1219   2.025       .  S
O1214      C1224   1.279       .  A
O1215     Cu1220   2.005       .  S
O1215      C1224   1.277       .  A
O1216     Cu1220   2.004       .  S
O1216      C1223   1.275       .  A
O1217     Cu1220   2.016       .  S
O1217      C1222   1.279       .  A
O1218     Cu1220   2.007       .  S
O1218      C1221   1.279       .  A
Cu1219    Cu1220   2.375       .  S
C1221      C1314   1.472       .  S
C1222      C1310   1.472       .  S
C1223      C1297   1.480       .  S
C1224      C1362   1.476       .  S
O1225     Cu1233   2.016       .  S
O1226     Cu1233   2.016   1_545  S
O1227     Cu1233   2.011   1_545  S
O1229     Cu1234   2.001       .  S
O1229      C1238   1.275       .  A
O1230      C1237   1.277       .  A
O1231     Cu1234   2.021   1_455  S
O1231      C1236   1.279       .  A
O1232     Cu1234   2.023       .  S
C1235      C1349   1.480       .  S
C1236      C1318   1.481       .  S
C1237      C1294   1.481       .  S
C1238      C1290   1.477       .  S
O1239      C1249   1.281       .  A
O1240     Cu1247   2.023       .  S
O1240      C1250   1.281       .  A
O1241     Cu1247   1.995       .  S
O1243     Cu1248   2.025       .  S
O1245      C1250   1.275       .  A
O1246     Cu1248   2.006   1_655  S
O1246      C1249   1.276       .  A
C1249      C1281   1.478       .  S
C1250      C1285   1.477       .  S
C1251      C1306   1.481       .  S
C1252      C1346   1.472       .  S
O1253     Cu1261   2.014       .  S
O1253      C1263   1.277       .  A
O1254     Cu1261   2.016       .  S
O1254      C1264   1.279       .  A
O1255     Cu1261   2.033       .  S
O1255      C1265   1.281       .  A
O1256     Cu1261   2.019       .  S
O1256      C1266   1.280       .  A
O1257     Cu1262   2.011       .  S
O1258     Cu1262   2.001       .  S
O1259     Cu1262   2.018       .  S
O1260     Cu1262   2.019       .  S
C1263      C1334   1.477       .  S
C1264      C1301   1.480       .  S
C1265      C1293   1.478       .  S
C1266      C1289   1.478       .  S
O1267     Cu1275   2.035       .  S
O1267      C1277   1.282       .  A
O1268     Cu1275   2.030       .  S
O1268      C1278   1.280       .  A
O1269     Cu1275   1.995       .  S
O1269      C1279   1.274       .  A
O1270     Cu1275   2.002       .  S
O1270      C1280   1.275       .  A
O1271     Cu1276   2.025       .  S
O1271      C1280   1.281       .  A
O1272     Cu1276   2.032       .  S
O1272      C1279   1.282       .  A
O1273     Cu1276   1.995       .  S
O1273      C1278   1.276       .  A
O1274     Cu1276   1.994       .  S
O1274      C1277   1.274       .  A
Cu1275    Cu1276   2.374       .  S
C1277      C1298   1.478       .  S
C1278      C1330   1.475       .  S
C1279      C1282   1.477       .  S
C1280      C1286   1.478       .  S
C1281      C1282   1.341       .  D
C1281      H1283   1.086       .  S
C1282      H1284   1.087       .  S
C1285      C1286   1.342       .  D
C1285      H1287   1.087       .  S
C1286      H1288   1.087       .  S
C1289      C1290   1.343       .  D
C1290      H1292   1.087       .  S
C1293      C1294   1.343       .  D
C1294      H1296   1.087       .  S
C1297      C1298   1.342       .  D
C1297      H1299   1.087       .  S
C1298      H1300   1.087       .  S
C1301      C1302   1.346       .  D
C1302      H1304   1.087       .  S
C1305      C1306   1.342       .  D
C1305      H1307   1.087       .  S
C1309      C1310   1.347       .  D
C1309      H1311   1.087       .  S
C1310      H1312   1.087       .  S
C1313      C1314   1.341       .  D
C1313      H1315   1.086       .  S
C1314      H1316   1.086       .  S
C1317      C1318   1.346       .  D
C1318      H1320   1.087       .  S
C1321      C1322   1.343       .  D
C1322      H1324   1.087       .  S
C1325      C1326   1.344       .  D
C1325      H1327   1.086       .  S
C1329      C1330   1.344       .  D
C1329      H1331   1.087       .  S
C1330      H1332   1.087       .  S
C1333      C1334   1.342       .  D
C1334      H1336   1.087       .  S
C1337      C1338   1.343       .  D
C1337      H1339   1.087       .  S
C1338      H1340   1.087       .  S
C1341      C1342   1.345       .  D
C1341      H1343   1.087       .  S
C1342      H1344   1.087       .  S
C1345      C1346   1.342       .  D
C1346      H1348   1.086       .  S
C1349      C1350   1.344       .  D
C1353      C1354   1.344   1_655  D
C1353      H1355   1.087       .  S
C1357      C1358   1.344   1_455  D
C1358      H1360   1.087       .  S
C1361      C1362   1.344       .  D
C1361      H1363   1.087       .  S
C1362      H1364   1.086       .  S
C1365      C1366   1.345   1_556  D
C1365      H1367   1.087   1_556  S
C1366      H1368   1.087   1_554  S
C1369      C1370   1.344       .  D
C1369      H1371   1.087       .  S
C1373      C1374   1.345   1_554  D
C1374      H1376   1.087       .  S
C1377      C1378   1.343       .  D
C1377      H1379   1.087       .  S
C1378      H1380   1.087       .  S
C1381      C1382   1.343       .  D
C1381      H1383   1.087       .  S
C1382      H1384   1.087       .  S
C1385      C1386   1.343       .  D
C1385      H1387   1.087       .  S
C1389      C1390   1.345   1_454  D
C1390      H1392   1.087   1_556  S
C1393      C1394   1.342   1_565  D
C1398      H1400   1.087   1_554  S
C1401      C1402   1.347       .  D
C1402      H1404   1.087       .  S
C1405      C1406   1.341       .  D
C1405      H1407   1.087       .  S
