geometry optimzed in LAMMPS
_audit_creation_date              2020-11-30 
_audit_creation_method            'lammps2cif' 
_symmetry_space_group_name_H-M    'P1' 
_symmetry_Int_Tables_number       1 
_symmetry_cell_setting            triclinic 
loop_ 
_symmetry_equiv_pos_as_xyz 
  x,y,z 
_cell_length_a                    26.6771365 
_cell_length_b                    26.682048615749533 
_cell_length_c                    39.00340755616716 
_cell_angle_alpha                 91.1176872057867 
_cell_angle_beta                  90.68743785274116 
_cell_angle_gamma                 90.10410704195877 
loop_ 
_atom_site_label 
_atom_site_type_symbol 
_atom_site_fract_x 
_atom_site_fract_y 
_atom_site_fract_z 
_atom_site_charge 
O1          O  0.03222612  0.48972551  0.21277168    -0.71600
O2          O  0.01380195  0.98005342  0.11222324    -0.71800
O3          O  0.02353414  0.05857356  0.15732923    -0.71700
O4          O  0.02438727  0.41562601  0.16456729    -0.71700
O5          O  0.48684864  0.40833773  0.15793571    -0.71700
O6          O  0.47760832  0.05583577  0.16599321    -0.71700
O7          O  0.49194442  0.48547408  0.11447835    -0.71600
O8          O  0.46934353  0.98796229  0.21620255    -0.71800
V9          V  0.02050264  0.98685506  0.16086316     1.35200
V10         V  0.47601666  0.98365557  0.16772497     1.35200
C11         C  0.50817981  0.99250792  0.23479692     0.77600
C12         C  0.52032378  0.97714802  0.10473341     0.77700
C13         C  0.98394283  0.08428456  0.16102330     0.77600
C14         C  0.98410577  0.39028718  0.16539221     0.77500
O15         O  0.49702870  0.22427486  0.10708405    -0.71600
O16         O  0.47543266  0.23829797  0.20304335    -0.71800
O17         O  0.48824333  0.30354604  0.15230716    -0.71700
O18         O  0.48289872  0.16036429  0.15863285    -0.71700
O19         O  0.02541481  0.16488548  0.15797853    -0.71700
O20         O  0.02551540  0.30940472  0.16284748    -0.71700
O21         O  0.03209976  0.23502880  0.20849583    -0.71600
O22         O  0.01991964  0.23937237  0.11226732    -0.71800
V23         V  0.48751513  0.23172774  0.15523577     1.35200
V24         V  0.02416470  0.23709577  0.16042154     1.35200
C25         C  0.97767305  0.23676173  0.09751465     0.77600
C26         C  0.99365296  0.23717816  0.22683693     0.77700
C27         C  0.98469561  0.33389176  0.16400087     0.77600
C28         C  0.98490145  0.14031860  0.16104778     0.77500
O29         O  0.29230677  0.50657667  0.21741977    -0.71600
O30         O  0.28339201  0.01334479  0.11702924    -0.71800
O31         O  0.29049798  0.08245738  0.16696644    -0.71700
O32         O  0.29469471  0.44018765  0.16514544    -0.71700
O33         O  0.21350820  0.43671442  0.16738611    -0.71700
O34         O  0.20925620  0.08523703  0.16455782    -0.71700
O35         O  0.20928930  0.50846286  0.11993497    -0.71600
O36         O  0.21015817  0.01834503  0.21610589    -0.71800
V37         V  0.28590957  0.01063101  0.16556139     1.35200
V38         V  0.20794511  0.01310933  0.16757341     1.35200
C39         C  0.25169873  0.01441570  0.23163399     0.77600
C40         C  0.24136751  0.01257721  0.10168916     0.77700
C41         C  0.25096296  0.10849192  0.16457269     0.77600
C42         C  0.25511593  0.41383178  0.16587359     0.77500
O43         O  0.22029089  0.26769639  0.11250515    -0.71600
O44         O  0.21163777  0.25693604  0.20934511    -0.71800
O45         O  0.21593394  0.33322403  0.16483807    -0.71700
O46         O  0.21402768  0.19010924  0.15756055    -0.71700
O47         O  0.29474796  0.18835714  0.16496406    -0.71700
O48         O  0.29730393  0.33314916  0.16479868    -0.71700
O49         O  0.29301793  0.26143543  0.21281140    -0.71600
O50         O  0.30126878  0.26001321  0.11642981    -0.71800
V51         V  0.21702008  0.26187065  0.16100843     1.35200
V52         V  0.29506963  0.26074702  0.16461595     1.35200
C53         C  0.26262326  0.26630634  0.09818379     0.77600
C54         C  0.25136900  0.25755542  0.22730996     0.77700
C55         C  0.25652279  0.35782487  0.16513130     0.77600
C56         C  0.25346530  0.16454927  0.16209412     0.77500
O57         O  0.00271698  0.43908234  0.28340905    -0.71600
O58         O  0.50443110  0.42834481  0.38006142    -0.71800
O59         O  0.43210743  0.43388649  0.33108784    -0.71700
O60         O  0.07808686  0.43614795  0.33125538    -0.71700
O61         O  0.07172641  0.06025194  0.32932696    -0.71700
O62         O  0.43144621  0.05947517  0.33175463    -0.71700
O63         O  0.99763480  0.06575015  0.37700953    -0.71600
O64         O  0.50598055  0.04578262  0.28476890    -0.71800
V65         V  0.50436631  0.43317772  0.33133962     1.35200
V66         V  0.50368518  0.05557501  0.33351815     1.35200
C67         C  0.50393725  0.00170756  0.27203884     0.77600
C68         C  0.50094924  0.46812578  0.39797969     0.77700
C69         C  0.40858802  0.47530302  0.33144992     0.77600
C70         C  0.10168747  0.47724399  0.33578995     0.77500
O71         O  0.50774027  0.28036087  0.27659929    -0.71600
O72         O  0.00127564  0.29014107  0.37548134    -0.71800
O73         O  0.07418154  0.28866039  0.32836476    -0.71700
O74         O  0.43225807  0.28434372  0.32286226    -0.71700
O75         O  0.42999603  0.20327367  0.32611219    -0.71700
O76         O  0.07671521  0.20735616  0.32670897    -0.71700
O77         O  0.50401861  0.20277549  0.37382556    -0.71600
O78         O  0.99941934  0.20017579  0.28107895    -0.71800
V79         V  0.00187785  0.28414346  0.32731161     1.35200
V80         V  0.00498894  0.20614600  0.32944049     1.35200
C81         C  0.99866290  0.23959949  0.26374472     0.77600
C82         C  0.00743263  0.25133227  0.39285933     0.77700
C83         C  0.10018689  0.24878176  0.32794736     0.77600
C84         C  0.40638489  0.24457794  0.32500331     0.77500
O85         O  0.25494517  0.44957255  0.28208495    -0.71600
O86         O  0.25440385  0.42765887  0.37915656    -0.71800
O87         O  0.18284491  0.43872216  0.32981397    -0.71700
O88         O  0.32669971  0.43678206  0.33073004    -0.71700
O89         O  0.32436614  0.06270000  0.33307627    -0.71700
O90         O  0.17916627  0.06330504  0.33256130    -0.71700
O91         O  0.25201436  0.06805464  0.38163058    -0.71600
O92         O  0.25096277  0.05919446  0.28434488    -0.71800
V93         V  0.25477631  0.43968086  0.33059800     1.35200
V94         V  0.25175500  0.06182622  0.33295863     1.35200
C95         C  0.25369372  0.01723802  0.26899510     0.77600
C96         C  0.25905456  0.46489053  0.39969390     0.77700
C97         C  0.15828987  0.47842616  0.33605351     0.77600
C98         C  0.35227920  0.47684989  0.33268584     0.77500
O99         O  0.25174363  0.21175592  0.27832014    -0.71600
O100        O  0.25243580  0.20427912  0.37554287    -0.71800
O101        O  0.18068413  0.20884814  0.32636132    -0.71700
O102        O  0.32441284  0.20621007  0.32677068    -0.71700
O103        O  0.32637709  0.28752662  0.32820822    -0.71700
O104        O  0.18172034  0.28987246  0.33238201    -0.71700
O105        O  0.25855123  0.28550302  0.37901377    -0.71600
O106        O  0.25017168  0.29319304  0.28255913    -0.71800
V107        V  0.25242777  0.20934351  0.32688730     1.35200
V108        V  0.25412362  0.28744671  0.33059689     1.35200
C109        C  0.25012767  0.25392571  0.26417954     0.77600
C110        C  0.25617792  0.24390394  0.39371959     0.77700
C111        C  0.15646612  0.24952896  0.32894863     0.77600
C112        C  0.35011835  0.24625537  0.32663608     0.77500
O113        O  0.01199191  0.42675055  0.45463254    -0.71600
O114        O  0.51585239  0.44977711  0.55115336    -0.71800
O115        O  0.46701283  0.39355554  0.50526735    -0.71700
O116        O  0.06070134  0.47735547  0.50391583    -0.71700
O117        O  0.00788447  0.09874050  0.50987669    -0.71700
O118        O  0.40976551  0.02009618  0.49022651    -0.71700
O119        O  0.94390248  0.04829835  0.54466023    -0.71600
O120        O  0.47748031  0.06894368  0.45567769    -0.71800
V121        V  0.51590032  0.44340102  0.50240370     1.35200
V122        V  0.46365997  0.06006134  0.50358672     1.35200
C123        C  0.49552145  0.46714915  0.43529361     0.77600
C124        C  0.47110701  0.01918903  0.56777914     0.77700
C125        C  0.42252384  0.40572626  0.50027752     0.77600
C126        C  0.05188766  0.52367188  0.50545914     0.77500
O127        O  0.98318010  0.29163122  0.54222357    -0.71600
O128        O  0.46786717  0.26928008  0.44271938    -0.71800
O129        O  0.42169748  0.22450731  0.49412776    -0.71700
O130        O  0.02916227  0.33438103  0.48796067    -0.71700
O131        O  0.08386923  0.27887806  0.50206471    -0.71700
O132        O  0.47723593  0.16803949  0.48303982    -0.71700
O133        O  0.04268299  0.23317987  0.44676052    -0.71600
O134        O  0.51963862  0.21161775  0.54037670    -0.71800
V135        V  0.97996971  0.28437487  0.49352035     1.35200
V136        V  0.03443882  0.22946849  0.49472024     1.35200
C137        C  0.00358855  0.25720088  0.55935791     0.77600
C138        C  0.00881612  0.25489704  0.42973604     0.77700
C139        C  0.43226424  0.17937219  0.48702536     0.77600
C140        C  0.07386131  0.32322873  0.49363081     0.77500
O141        O  0.23203881  0.42903533  0.45264853    -0.71600
O142        O  0.20561279  0.44785162  0.54835787    -0.71800
O143        O  0.16328471  0.47650494  0.48849991    -0.71700
O144        O  0.27276240  0.39914257  0.51332525    -0.71700
O145        O  0.30772950  0.01822877  0.50373719    -0.71700
O146        O  0.20347296  0.11077575  0.50344998    -0.71700
O147        O  0.25287004  0.06151102  0.55190925    -0.71600
O148        O  0.25944013  0.06661767  0.45448982    -0.71800
V149        V  0.21926860  0.43948959  0.50065522     1.35200
V150        V  0.25493964  0.06320451  0.50321583     1.35200
C151        C  0.25860295  0.46097493  0.43744517     0.77600
C152        C  0.22351509  0.03104844  0.56588921     0.77700
C153        C  0.16742287  0.52267266  0.48371998     0.77600
C154        C  0.31347636  0.41885425  0.52137896     0.77500
O155        O  0.22258091  0.21983511  0.44688544    -0.71600
O156        O  0.22806287  0.21622977  0.54403931    -0.71800
O157        O  0.17704619  0.26936398  0.49914584    -0.71700
O158        O  0.27448039  0.16748773  0.49292165    -0.71700
O159        O  0.32970557  0.22455507  0.50520020    -0.71700
O160        O  0.23422135  0.32412510  0.48866232    -0.71700
O161        O  0.27407510  0.28358888  0.54460525    -0.71600
O162        O  0.28973741  0.26625935  0.44835492    -0.71800
V163        V  0.22609530  0.21900798  0.49552565     1.35200
V164        V  0.28137584  0.27360468  0.49646871     1.35200
C165        C  0.25662103  0.24255437  0.43110514     0.77600
C166        C  0.24993423  0.25109358  0.56082716     0.77700
C167        C  0.18978502  0.31462480  0.49594758     0.77600
C168        C  0.31858531  0.17890545  0.50110308     0.77500
O169        O  0.00106971  0.47192111  0.04610445    -0.71600
O170        O  0.00749184  0.98901313  0.94676730    -0.71800
O171        O  0.05048401  0.02690963  0.00331598    -0.71700
O172        O  0.96549271  0.42969051  0.98643452    -0.71700
O173        O  0.47029283  0.46830509  0.99191871    -0.71700
O174        O  0.55005795  0.07331579  0.01536321    -0.71700
O175        O  0.51241100  0.53672903  0.95374415    -0.71600
O176        O  0.49467940  0.01381396  0.05333728    -0.71800
V177        V  0.00159081  0.97717078  0.99403872     1.35200
V178        V  0.50013199  0.02482791  0.00588565     1.35200
C179        C  0.52235323  0.98178654  0.06749375     0.77600
C180        C  0.98150800  0.02293395  0.93335398     0.77700
C181        C  0.03474392  0.06967620  0.01210231     0.77600
C182        C  0.91851983  0.43435398  0.98268248     0.77500
O183        O  0.50531110  0.22461404  0.94453574    -0.71600
O184        O  0.51697929  0.19740532  0.03893185    -0.71800
O185        O  0.47081757  0.26509131  0.00204138    -0.71700
O186        O  0.55449154  0.15547195  0.98020432    -0.71700
O187        O  0.04804599  0.22546567  0.99159453    -0.71700
O188        O  0.95799617  0.33173111  0.00635317    -0.71700
O189        O  0.00635244  0.26839593  0.04615608    -0.71600
O190        O  0.00114161  0.28963660  0.95111277    -0.71800
V191        V  0.51346367  0.21102366  0.99144657     1.35200
V192        V  0.00201266  0.27800142  0.99871203     1.35200
C193        C  0.96910649  0.26769298  0.93210417     0.77600
C194        C  0.97501037  0.24066925  0.06044376     0.77700
C195        C  0.91123266  0.32396352  0.00536044     0.77600
C196        C  0.03044762  0.18216188  0.98656901     0.77500
O197        O  0.27999374  0.53537873  0.04899652    -0.71600
O198        O  0.28505173  0.01474959  0.95209372    -0.71800
O199        O  0.24063030  0.08191440  0.99131526    -0.71700
O200        O  0.33718611  0.48223161  0.00640367    -0.71700
O201        O  0.28127963  0.42380364  0.01257380    -0.71700
O202        O  0.17166029  0.03790864  0.99051800    -0.71700
O203        O  0.23626807  0.45595868  0.95422279    -0.71600
O204        O  0.20391592  0.99278354  0.04782682    -0.71800
V205        V  0.27767335  0.02456875  0.00004877     1.35200
V206        V  0.21140828  0.98226597  0.99996830     1.35200
C207        C  0.23892350  0.01447120  0.06439799     0.77600
C208        C  0.25173564  0.99032027  0.93573280     0.77700
C209        C  0.19387317  0.07875476  0.98689553     0.77600
C210        C  0.32636014  0.43734129  0.01166931     0.77500
O211        O  0.22480502  0.27598243  0.94779206    -0.71600
O212        O  0.23834606  0.29732747  0.04382272    -0.71800
O213        O  0.27977461  0.33671310  0.98676392    -0.71700
O214        O  0.18476105  0.23846404  0.00361296    -0.71700
O215        O  0.24549087  0.18379507  0.00270276    -0.71700
O216        O  0.34130082  0.28398261  0.99215272    -0.71700
O217        O  0.29691651  0.24071790  0.04546759    -0.71600
O218        O  0.28873551  0.22543992  0.94899302    -0.71800
V219        V  0.23351410  0.28661495  0.99558740     1.35200
V220        V  0.29195482  0.23443769  0.99724205     1.35200
C221        C  0.25483791  0.24740184  0.93216043     0.77600
C222        C  0.26671826  0.26912782  0.06105818     0.77700
C223        C  0.32603887  0.32760909  0.98689375     0.77600
C224        C  0.19969521  0.19427317  0.00551800     0.77500
O225        O  0.02003934  0.52466160  0.88416119    -0.71600
O226        O  0.02291144  0.02527771  0.78255305    -0.71800
O227        O  0.02290050  0.09765131  0.83201263    -0.71700
O228        O  0.02046629  0.45258151  0.83433498    -0.71700
O229        O  0.47951730  0.44135200  0.83964162    -0.71700
O230        O  0.47410394  0.08668260  0.83738237    -0.71700
O231        O  0.46345029  0.50966277  0.79100490    -0.71600
O232        O  0.48380150  0.01938479  0.88827123    -0.71800
V233        V  0.02187742  0.02568420  0.83136314     1.35200
V234        V  0.47456166  0.01451944  0.84007398     1.35200
C235        C  0.98252285  0.02830854  0.89622242     0.77600
C236        C  0.98190727  0.02117898  0.76611416     0.77700
C237        C  0.98215057  0.12183804  0.82973500     0.77600
C238        C  0.97950677  0.42827784  0.83430012     0.77500
O239        O  0.46901048  0.26422076  0.78312903    -0.71600
O240        O  0.48659566  0.26142408  0.88014323    -0.71800
O241        O  0.47842658  0.33565751  0.83384916    -0.71700
O242        O  0.47602901  0.19172713  0.83091946    -0.71700
O243        O  0.02191492  0.20314244  0.83348325    -0.71700
O244        O  0.02038122  0.34734838  0.83293431    -0.71700
O245        O  0.01454533  0.27703160  0.88129032    -0.71600
O246        O  0.02835528  0.27261349  0.78460957    -0.71800
V247        V  0.47907366  0.26355235  0.83177587     1.35200
V248        V  0.01969184  0.27516209  0.83293209     1.35200
C249        C  0.99014965  0.27200704  0.76520830     0.77600
C250        C  0.97212243  0.27254964  0.89492700     0.77700
C251        C  0.97948755  0.37169058  0.83240287     0.77600
C252        C  0.98182797  0.17789122  0.82934420     0.77500
O253        O  0.29834901  0.48943531  0.88122046    -0.71600
O254        O  0.27855077  0.98645460  0.78285004    -0.71800
O255        O  0.28502556  0.06066791  0.83023732    -0.71700
O256        O  0.29326228  0.41673832  0.83192387    -0.71700
O257        O  0.21191493  0.41645020  0.83255832    -0.71700
O258        O  0.20434697  0.06130336  0.83646403    -0.71700
O259        O  0.20567034  0.49227104  0.78784136    -0.71600
O260        O  0.20866441  0.98661675  0.88324325    -0.71800
V261        V  0.28321904  0.98883647  0.83180123     1.35200
V262        V  0.20528257  0.98855987  0.83508147     1.35200
C263        C  0.25056139  0.98900316  0.89836817     0.77600
C264        C  0.23578872  0.99029251  0.76857772     0.77700
C265        C  0.24493375  0.08581107  0.83268749     0.77600
C266        C  0.25262726  0.39194807  0.83172846     0.77500
O267        O  0.20793151  0.23848929  0.78167485    -0.71600
O268        O  0.21076316  0.24430663  0.87911841    -0.71800
O269        O  0.21101816  0.31216037  0.82946405    -0.71700
O270        O  0.20655394  0.16834147  0.83198347    -0.71700
O271        O  0.28761244  0.16580688  0.82862633    -0.71700
O272        O  0.29233056  0.31033871  0.83182705    -0.71700
O273        O  0.29191320  0.23672959  0.87833530    -0.71600
O274        O  0.28944508  0.24025157  0.78162808    -0.71800
V275        V  0.21059750  0.24048065  0.83047061     1.35200
V276        V  0.28873869  0.23814604  0.83004677     1.35200
C277        C  0.24844942  0.24122900  0.76529227     0.77600
C278        C  0.25214987  0.24195075  0.89509960     0.77700
C279        C  0.25218464  0.33589498  0.83087723     0.77600
C280        C  0.24629469  0.14226804  0.83102543     0.77500
O281        O  0.48334375  0.46334287  0.71897224    -0.71600
O282        O  0.98185829  0.44006074  0.62452765    -0.71800
O283        O  0.05318094  0.45157718  0.67417263    -0.71700
O284        O  0.41206499  0.45221699  0.66829707    -0.71700
O285        O  0.40360186  0.05256739  0.67502994    -0.71700
O286        O  0.04928495  0.05529652  0.66123451    -0.71700
O287        O  0.46763046  0.05741856  0.62303737    -0.71600
O288        O  0.98306334  0.05947273  0.71225650    -0.71800
V289        V  0.48435013  0.45679411  0.67035427     1.35200
V290        V  0.47539629  0.05389356  0.67143690     1.35200
C291        C  0.48663504  0.01225399  0.73497255     0.77600
C292        C  0.47002278  0.01753015  0.60517059     0.77700
C293        C  0.07886445  0.49068019  0.66873960     0.77600
C294        C  0.38588498  0.49187651  0.66677063     0.77500
O295        O  0.00064778  0.30666857  0.71040287    -0.71600
O296        O  0.49385807  0.28920658  0.61107965    -0.71800
O297        O  0.42523921  0.28950689  0.66162808    -0.71700
O298        O  0.07240947  0.29949030  0.66150770    -0.71700
O299        O  0.06922095  0.21862777  0.66595781    -0.71700
O300        O  0.42805695  0.20825205  0.66094423    -0.71700
O301        O  0.00150510  0.21812331  0.61432260    -0.71600
O302        O  0.50034704  0.21539010  0.71058568    -0.71800
V303        V  0.99982120  0.30085005  0.66186331     1.35200
V304        V  0.99763044  0.22284474  0.66336747     1.35200
C305        C  0.99538726  0.26780293  0.72785388     0.77600
C306        C  0.00106915  0.25800820  0.59713080     0.77700
C307        C  0.40188432  0.24796584  0.66173931     0.77600
C308        C  0.09555623  0.25787774  0.66368027     0.77500
O309        O  0.22518000  0.44697500  0.61909043    -0.71600
O310        O  0.23861101  0.45014291  0.71573821    -0.71800
O311        O  0.15990382  0.44918094  0.67076502    -0.71700
O312        O  0.30462121  0.44940770  0.66441759    -0.71700
O313        O  0.29888505  0.05081210  0.67404266    -0.71700
O314        O  0.15490599  0.05258059  0.66954417    -0.71700
O315        O  0.22599586  0.04106709  0.71994199    -0.71600
O316        O  0.22900099  0.06149417  0.62366544    -0.71800
V317        V  0.23210993  0.45049535  0.66745566     1.35200
V318        V  0.22702539  0.04990592  0.67168255     1.35200
C319        C  0.22467302  0.02451319  0.60308191     0.77600
C320        C  0.23040518  0.99741592  0.73171812     0.77700
C321        C  0.13525385  0.48987038  0.66923007     0.77600
C322        C  0.32927720  0.49037099  0.66576971     0.77500
O323        O  0.24873575  0.28696541  0.71356584    -0.71600
O324        O  0.25215583  0.29223253  0.61580361    -0.71800
O325        O  0.17850933  0.29392987  0.66342147    -0.71700
O326        O  0.32182546  0.28798474  0.66586071    -0.71700
O327        O  0.31965515  0.20692072  0.66055178    -0.71700
O328        O  0.17454650  0.21268927  0.66292008    -0.71700
O329        O  0.24442134  0.21110056  0.61353189    -0.71600
O330        O  0.24884359  0.20551937  0.70990023    -0.71800
V331        V  0.25019999  0.28871575  0.66465609     1.35200
V332        V  0.24696929  0.21064177  0.66176955     1.35200
C333        C  0.24836823  0.24488695  0.72811095     0.77600
C334        C  0.24864166  0.25192784  0.59821014     0.77700
C335        C  0.15180419  0.25466721  0.66335321     0.77600
C336        C  0.34551807  0.24712074  0.66280781     0.77500
C337        C  0.35998911  0.36908367  0.98381148    -0.16300
C338        C  0.36337154  0.39871003  0.01174850    -0.31400
H339        H  0.35708054  0.38724168  0.95912186     0.12800
H340        H  0.36684606  0.38065372  0.03642755     0.13300
C341        C  0.16676056  0.12344597  0.98060131    -0.16300
C342        C  0.16544063  0.15420536  0.00771844    -0.31400
H343        H  0.17192279  0.13893726  0.95525058     0.12800
H344        H  0.16272450  0.13869975  0.03325287     0.13300
C345        C  0.87739311  0.36545337  0.00293068    -0.16300
C346        C  0.88657102  0.39203561  0.97532330    -0.31400
H347        H  0.86994223  0.38490969  0.02714783     0.12800
H348        H  0.46826124  0.36410816  0.95726684     0.13300
C349        C  0.06618301  0.11283349  0.01297317    -0.16300
C350        C  0.06206414  0.13895295  0.98416489    -0.31400
H351        H  0.63806721  0.12213598  0.03518743     0.12800
H352        H  0.05891250  0.11842987  0.95981320     0.13300
C353        C  0.39289375  0.14158725  0.48223070    -0.16300
C354        C  0.35705948  0.14103633  0.50553104    -0.31400
H355        H  0.38140624  0.13663481  0.45554099     0.12800
H356        H  0.36985095  0.13980635  0.53207622     0.13300
C357        C  0.11366641  0.35924829  0.48719863    -0.16300
C358        C  0.15558563  0.35508362  0.50532640    -0.31400
H359        H  0.11698501  0.36837866  0.46029757     0.12800
H360        H  0.15071722  0.35609525  0.53296417     0.13300
C361        C  0.38263708  0.37084876  0.50689742    -0.16300
C362        C  0.35422521  0.38715928  0.53247774    -0.31400
H363        H  0.36428249  0.35574199  0.48388443     0.12800
H364        H  0.35665239  0.93339726  0.52978781     0.13300
C365        C  0.09339525  0.55702806  0.50389301    -0.16300
C366        C  0.12219264  0.54970988  0.47650204    -0.31400
H367        H  0.11104365  0.56422289  0.52877142     0.12800
H368        H  0.10061913  0.13965396  0.47683298     0.13300
O369        O  0.03020924  0.99402829  0.20934332    -0.71600
O370        O  0.01428344  0.48504466  0.11575506    -0.71800
O371        O  0.02184894  0.56006880  0.16333095    -0.71700
O372        O  0.02082380  0.91515056  0.16433892    -0.71700
O373        O  0.47229396  0.91110755  0.16851727    -0.71700
O374        O  0.48223228  0.55221093  0.16638964    -0.71700
O375        O  0.47859575  0.98092679  0.11936580    -0.71600
O376        O  0.47727514  0.47500762  0.21077732    -0.71800
V377        V  0.02159854  0.48773426  0.16425216     1.35200
V378        V  0.48614773  0.48023039  0.16257689     1.35200
C379        C  0.51519040  0.47814771  0.23043893     0.77600
C380        C  0.53476676  0.48446198  0.10098014     0.77700
C381        C  0.98135825  0.58441467  0.16744597     0.77600
C382        C  0.97983256  0.89122283  0.16628606     0.77500
O383        O  0.48096868  0.72841462  0.11774927    -0.71600
O384        O  0.46996522  0.73251482  0.21454161    -0.71800
O385        O  0.47322049  0.80296611  0.16606045    -0.71700
O386        O  0.47847531  0.65813274  0.16673602    -0.71700
O387        O  0.02011230  0.66610475  0.16176291    -0.71700
O388        O  0.01991477  0.81031440  0.16540674    -0.71700
O389        O  0.02913634  0.73691476  0.21200007    -0.71600
O390        O  0.01063133  0.74109925  0.11516438    -0.71800
V391        V  0.47726268  0.73048638  0.16627359     1.35200
V392        V  0.01833665  0.73834411  0.16363500     1.35200
C393        C  0.96726307  0.74109035  0.10162634     0.77600
C394        C  0.99174471  0.73926355  0.23154214     0.77700
C395        C  0.97936779  0.83497661  0.16710848     0.77600
C396        C  0.98038930  0.64095372  0.16649736     0.77500
O397        O  0.29104489  0.00897320  0.21424494    -0.71600
O398        O  0.29037210  0.51669852  0.12024600    -0.71800
O399        O  0.28828285  0.58407447  0.17236423    -0.71700
O400        O  0.28492702  0.93845229  0.16380428    -0.71700
O401        O  0.20432393  0.94071714  0.17022873    -0.71700
O402        O  0.20707934  0.58083228  0.16973306    -0.71700
O403        O  0.20212142  0.00872023  0.11914611    -0.71600
O404        O  0.21082537  0.50663779  0.21742210    -0.71800
V405        V  0.28982645  0.51204341  0.16882976     1.35200
V406        V  0.21173131  0.50853316  0.16866943     1.35200
C407        C  0.25183589  0.50298612  0.23373174     0.77600
C408        C  0.24960051  0.51262277  0.10356457     0.77700
C409        C  0.24678782  0.60727701  0.17102664     0.77600
C410        C  0.24409464  0.91469448  0.16744455     0.77500
O411        O  0.20149373  0.76134587  0.12122902    -0.71600
O412        O  0.20617357  0.75935790  0.21858584    -0.71800
O413        O  0.20329366  0.83306669  0.17109895    -0.71700
O414        O  0.20440748  0.68800682  0.16885118    -0.71700
O415        O  0.28568458  0.68918636  0.17094631    -0.71700
O416        O  0.28424815  0.83329172  0.16668394    -0.71700
O417        O  0.28746827  0.76503290  0.21739076    -0.71600
O418        O  0.28278589  0.75644241  0.12021279    -0.71800
V419        V  0.20534434  0.76054691  0.16991798     1.35200
V420        V  0.28343688  0.76115883  0.16882202     1.35200
C421        C  0.24140508  0.75788431  0.10421131     0.77600
C422        C  0.24773986  0.76136519  0.23439988     0.77700
C423        C  0.24366749  0.85806621  0.16846679     0.77600
C424        C  0.24538065  0.66376726  0.17037885     0.77500
O425        O  0.99869280  0.96634083  0.28555021    -0.71600
O426        O  0.50486415  0.98751552  0.38871445    -0.71800
O427        O  0.42886283  0.97984216  0.34171095    -0.71700
O428        O  0.07503194  0.97916451  0.33167114    -0.71700
O429        O  0.07555162  0.51666526  0.33974396    -0.71700
O430        O  0.43459647  0.51517076  0.33131699    -0.71700
O431        O  0.00016187  0.50764029  0.38597431    -0.71600
O432        O  0.51197326  0.51575269  0.28609752    -0.71800
V433        V  0.50118247  0.97836209  0.34030259     1.35200
V434        V  0.50652473  0.51121884  0.33459427     1.35200
C435        C  0.50995104  0.47615146  0.26780801     0.77600
C436        C  0.50404147  0.03105850  0.40213570     0.77700
C437        C  0.40528458  0.02051502  0.33673248     0.77600
C438        C  0.09816155  0.02075163  0.33061044     0.77500
O439        O  0.50232024  0.78015155  0.28495182    -0.71600
O440        O  0.00607660  0.78902276  0.38252871    -0.71800
O441        O  0.07351068  0.78771407  0.33212148    -0.71700
O442        O  0.43192436  0.78944454  0.33470891    -0.71700
O443        O  0.42917859  0.70820278  0.33520147    -0.71700
O444        O  0.07530820  0.70668842  0.33567535    -0.71700
O445        O  0.49869019  0.71279253  0.38578629    -0.71600
O446        O  0.00299719  0.70182235  0.28593974    -0.71800
V447        V  0.00142054  0.78431139  0.33380939     1.35200
V448        V  0.00321137  0.70624198  0.33478703     1.35200
C449        C  0.99813171  0.74143608  0.26896098     0.77600
C450        C  0.00620172  0.74928583  0.39961095     0.77700
C451        C  0.09915511  0.74781793  0.33440423     0.77600
C452        C  0.40575380  0.74955937  0.33513763     0.77500
O453        O  0.25621635  0.97799510  0.28655063    -0.71600
O454        O  0.24533499  0.98696555  0.38357157    -0.71800
O455        O  0.17955796  0.98198474  0.33121792    -0.71700
O456        O  0.32322866  0.98206609  0.33905000    -0.71700
O457        O  0.32836057  0.51783047  0.33619194    -0.71700
O458        O  0.18349384  0.51831197  0.34218894    -0.71700
O459        O  0.26181864  0.50809695  0.38719412    -0.71600
O460        O  0.25107866  0.52996082  0.29179495    -0.71800
V461        V  0.25128774  0.98384822  0.33509108     1.35200
V462        V  0.25608602  0.51694872  0.33928567     1.35200
C463        C  0.25252335  0.49374137  0.27066755     0.77600
C464        C  0.24633443  0.02908347  0.39902546     0.77700
C465        C  0.15456122  0.02235916  0.33133731     0.77600
C466        C  0.34868062  0.02200611  0.33638199     0.77500
O467        O  0.24857584  0.71496952  0.28531615    -0.71600
O468        O  0.25669594  0.70368841  0.38234258    -0.71800
O469        O  0.18057756  0.70850846  0.33538691    -0.71700
O470        O  0.32444868  0.71000623  0.33186044    -0.71700
O471        O  0.32458847  0.79065626  0.34005977    -0.71700
O472        O  0.17982609  0.78982835  0.33712652    -0.71700
O473        O  0.25041311  0.78469397  0.38731000    -0.71600
O474        O  0.25319922  0.79615761  0.29052934    -0.71800
V475        V  0.25254254  0.71086151  0.33383373     1.35200
V476        V  0.25208859  0.78879242  0.33878353     1.35200
C477        C  0.24996270  0.75744244  0.27156523     0.77600
C478        C  0.25409857  0.74249807  0.40131789     0.77700
C479        C  0.15544883  0.74886690  0.33569340     0.77600
C480        C  0.34932304  0.75036792  0.33565616     0.77500
O481        O  0.02077468  0.99944455  0.45161588    -0.71600
O482        O  0.49836549  0.98838061  0.55185138    -0.71800
O483        O  0.45743858  0.95406536  0.49270942    -0.71700
O484        O  0.05873888  0.03583568  0.51239808    -0.71700
O485        O  0.00764388  0.53938975  0.50621324    -0.71700
O486        O  0.41206357  0.45083996  0.49403801    -0.71700
O487        O  0.94726332  0.49186693  0.54790351    -0.71600
O488        O  0.46880404  0.49994487  0.44991985    -0.71800
V489        V  0.51089653  0.99779460  0.50499891     1.35200
V490        V  0.46232554  0.49985410  0.49814049     1.35200
C491        C  0.50343739  0.03610386  0.44005120     0.77600
C492        C  0.48445158  0.47871971  0.56536494     0.77700
C493        C  0.41542206  0.97367450  0.48653899     0.77600
C494        C  0.05014052  0.08218880  0.51675028     0.77500
O495        O  0.06159273  0.77592550  0.54917437    -0.71600
O496        O  0.53593203  0.79078611  0.45250715    -0.71800
O497        O  0.49259496  0.83415138  0.50687914    -0.71700
O498        O  0.10249017  0.73172452  0.49272347    -0.71700
O499        O  0.04958260  0.66974814  0.49540740    -0.71700
O500        O  0.44335031  0.76970266  0.51273395    -0.71700
O501        O  0.98795883  0.72002510  0.45505211    -0.71600
O502        O  0.50715820  0.72000675  0.55056575    -0.71800
V503        V  0.05156274  0.77731035  0.50050531     1.35200
V504        V  0.99991603  0.71841544  0.50311272     1.35200
C505        C  0.03630773  0.74548888  0.56669364     0.77600
C506        C  0.01159592  0.75084093  0.43712170     0.77700
C507        C  0.45016936  0.81650412  0.51244088     0.77600
C508        C  0.09330790  0.68558940  0.49089755     0.77500
O509        O  0.21294670  0.99968380  0.45063926    -0.71600
O510        O  0.19506643  0.00411971  0.54696144    -0.71800
O511        O  0.15182489  0.04967292  0.49261299    -0.71700
O512        O  0.25479768  0.95587549  0.50410762    -0.71700
O513        O  0.31934255  0.46544580  0.51726151    -0.71700
O514        O  0.20921376  0.54405873  0.48823899    -0.71700
O515        O  0.24898264  0.51692978  0.54865065    -0.71600
O516        O  0.28044296  0.49459848  0.45538189    -0.71800
V517        V  0.20415530  0.00377457  0.49869864     1.35200
V518        V  0.26389285  0.50388095  0.50218306     1.35200
C519        C  0.23939603  0.03217279  0.43619882     0.77600
C520        C  0.22511578  0.48450023  0.56486425     0.77700
C521        C  0.15996965  0.09592368  0.49746512     0.77600
C522        C  0.29900084  0.97189902  0.50453983     0.77500
O523        O  0.28768762  0.71108647  0.45360950    -0.71600
O524        O  0.30570112  0.72133377  0.55077953    -0.71800
O525        O  0.24786004  0.66801120  0.50840529    -0.71700
O526        O  0.34724169  0.76278318  0.49520971    -0.71700
O527        O  0.29325453  0.82396445  0.49505061    -0.71700
O528        O  0.19478808  0.72932002  0.51472840    -0.71700
O529        O  0.25562650  0.78557809  0.55224675    -0.71600
O530        O  0.23104065  0.76946638  0.45695833    -0.71800
V531        V  0.29642797  0.71716320  0.50217471     1.35200
V532        V  0.24445455  0.77570331  0.50467161     1.35200
C533        C  0.25696417  0.73988917  0.43880704     0.77600
C534        C  0.28223544  0.75441861  0.56798439     0.77700
C535        C  0.20440648  0.68300668  0.51413928     0.77600
C536        C  0.33727531  0.80835322  0.49159929     0.77500
O537        O  0.99946504  0.96389005  0.04176695    -0.71600
O538        O  0.01072709  0.50080112  0.95209466    -0.71800
O539        O  0.04364112  0.54376013  0.01056012    -0.71700
O540        O  0.95374560  0.92675402  0.98352266    -0.71700
O541        O  0.44811093  0.97805672  0.99733052    -0.71700
O542        O  0.54974206  0.58238534  0.01079932    -0.71700
O543        O  0.50265392  0.03752095  0.95805124    -0.71600
O544        O  0.50541468  0.51396232  0.04847069    -0.71800
V545        V  0.00386410  0.48711272  0.99896280     1.35200
V546        V  0.51098640  0.52478251  0.00122039     1.35200
C547        C  0.53897846  0.48990867  0.06395209     0.77600
C548        C  0.97769738  0.52619050  0.93708893     0.77700
C549        C  0.02120185  0.58441441  0.01678622     0.77600
C550        C  0.90825397  0.93895236  0.97925059     0.77500
O551        O  0.48100236  0.73679141  0.95219880    -0.71600
O552        O  0.49099387  0.71555049  0.04755719    -0.71800
O553        O  0.43946358  0.77813421  0.00790401    -0.71700
O554        O  0.53440585  0.67583082  0.99057655    -0.71700
O555        O  0.03414740  0.74285173  0.99397652    -0.71700
O556        O  0.94089857  0.84420607  0.01396702    -0.71700
O557        O  0.99299413  0.77877019  0.05060436    -0.71600
O558        O  0.98405281  0.80698023  0.95569564    -0.71800
V559        V  0.48759466  0.72729485  0.99978991     1.35200
V560        V  0.98652035  0.79271048  0.00338617     1.35200
C561        C  0.95700199  0.78010092  0.93571371     0.77600
C562        C  0.96155660  0.75062880  0.06465575     0.77700
C563        C  0.89461416  0.83657102  0.00928007     0.77600
C564        C  0.01823136  0.69864930  0.99161968     0.77500
O565        O  0.27380711  0.03500519  0.04810032    -0.71600
O566        O  0.28825123  0.51873415  0.95235086    -0.71800
O567        O  0.23064316  0.57062858  0.99382944    -0.71700
O568        O  0.31726134  0.96853522  0.00847677    -0.71700
O569        O  0.24780591  0.92527398  0.00957779    -0.71700
O570        O  0.17600253  0.50991625  0.99320219    -0.71700
O571        O  0.21661937  0.97019598  0.95212570    -0.71600
O572        O  0.22129527  0.47878785  0.05022306    -0.71800
V573        V  0.28277848  0.52590493  0.00054364     1.35200
V574        V  0.23013678  0.46790144  0.00241974     1.35200
C575        C  0.24967113  0.50959323  0.06605159     0.77600
C576        C  0.26246823  0.48563251  0.93679442     0.77700
C577        C  0.18588451  0.55550124  0.99123227     0.77600
C578        C  0.29464799  0.92803468  0.01279433     0.77500
O579        O  0.19738100  0.75596363  0.95278380    -0.71600
O580        O  0.20380450  0.77196429  0.04976036    -0.71800
O581        O  0.24329246  0.81819247  0.99561651    -0.71700
O582        O  0.15818100  0.70825888  0.00666024    -0.71700
O583        O  0.22501451  0.66261522  0.01308898    -0.71700
O584        O  0.30862799  0.76912925  0.99390453    -0.71700
O585        O  0.27324956  0.72938870  0.05095786    -0.71600
O586        O  0.26026332  0.70427219  0.95508683    -0.71800
V587        V  0.20184738  0.76285085  0.00126864     1.35200
V588        V  0.26518623  0.71684003  0.00315448     1.35200
C589        C  0.22971293  0.72970637  0.93743433     0.77600
C590        C  0.23966458  0.75348008  0.06678221     0.77700
C591        C  0.28978955  0.81173205  0.99188389     0.77600
C592        C  0.17817966  0.66689960  0.01319098     0.77500
O593        O  0.02334926  0.02562858  0.88012882    -0.71600
O594        O  0.02336636  0.52401815  0.78676954    -0.71800
O595        O  0.02362502  0.59682554  0.83684232    -0.71700
O596        O  0.02440699  0.95372796  0.83086802    -0.71700
O597        O  0.47297160  0.94216158  0.84211029    -0.71700
O598        O  0.47761853  0.58584535  0.83733355    -0.71700
O599        O  0.46086219  0.00997267  0.79245745    -0.71600
O600        O  0.49259189  0.51771856  0.88621744    -0.71800
V601        V  0.02030435  0.52470690  0.83550640     1.35200
V602        V  0.47988423  0.51366785  0.83845026     1.35200
C603        C  0.97893574  0.52903770  0.89973864     0.77600
C604        C  0.98304215  0.51970446  0.76960250     0.77700
C605        C  0.98368076  0.62233302  0.83449382     0.77600
C606        C  0.98416121  0.92856128  0.83238727     0.77500
O607        O  0.47998021  0.76383684  0.78536619    -0.71600
O608        O  0.47174287  0.76301048  0.88265454    -0.71800
O609        O  0.47359324  0.83543335  0.83558652    -0.71700
O610        O  0.47686823  0.69139134  0.83279625    -0.71700
O611        O  0.02418035  0.70362120  0.84273523    -0.71700
O612        O  0.02546328  0.84812279  0.83762120    -0.71700
O613        O  0.01028186  0.78205425  0.88781626    -0.71600
O614        O  0.04117921  0.77024220  0.79325163    -0.71800
V615        V  0.47706725  0.76345970  0.83410910     1.35200
V616        V  0.02369134  0.77598518  0.84022068     1.35200
C617        C  0.00690138  0.77038350  0.77075753     0.77600
C618        C  0.96575309  0.78003425  0.89837360     0.77700
C619        C  0.98499945  0.87233760  0.83294555     0.77600
C620        C  0.98470996  0.67870135  0.83504704     0.77500
O621        O  0.28984134  0.99205992  0.88061356    -0.71600
O622        O  0.28681998  0.48834527  0.78374952    -0.71800
O623        O  0.29263294  0.56084096  0.83274908    -0.71700
O624        O  0.28555402  0.91688832  0.83355331    -0.71700
O625        O  0.20426342  0.91598121  0.83379296    -0.71700
O626        O  0.21191426  0.56032738  0.83902634    -0.71700
O627        O  0.19744047  0.99054234  0.78699362    -0.71600
O628        O  0.21727321  0.48355471  0.88441179    -0.71800
V629        V  0.29126277  0.48880316  0.83249329     1.35200
V630        V  0.21331163  0.48824508  0.83598998     1.35200
C631        C  0.25954714  0.48519341  0.89928209     0.77600
C632        C  0.24414255  0.49117749  0.76943780     0.77700
C633        C  0.25212737  0.58528719  0.83566076     0.77600
C634        C  0.24530186  0.89164985  0.83463644     0.77500
O635        O  0.22061966  0.73697780  0.78347006    -0.71600
O636        O  0.19869780  0.73730128  0.87996232    -0.71800
O637        O  0.20725775  0.80922123  0.83153091    -0.71700
O638        O  0.21076321  0.66524502  0.83182943    -0.71700
O639        O  0.29178064  0.66710348  0.83735728    -0.71700
O640        O  0.28701275  0.81167718  0.84294878    -0.71700
O641        O  0.27934520  0.73410234  0.88811302    -0.71600
O642        O  0.30091557  0.74370078  0.79275968    -0.71800
V643        V  0.21086721  0.73722005  0.83180897     1.35200
V644        V  0.28817300  0.73922414  0.84023287     1.35200
C645        C  0.26449937  0.74207321  0.77195012     0.77600
C646        C  0.23573231  0.73314248  0.90027648     0.77700
C647        C  0.24655670  0.83525381  0.83660898     0.77600
C648        C  0.25163835  0.64146903  0.83489965     0.77500
O649        O  0.48134296  0.97213717  0.71751914    -0.71600
O650        O  0.97357617  0.97525496  0.61516664    -0.71800
O651        O  0.04680077  0.97428379  0.66458285    -0.71700
O652        O  0.40577732  0.97161840  0.66890940    -0.71700
O653        O  0.40943858  0.53335560  0.66649127    -0.71700
O654        O  0.05497947  0.53077231  0.66263425    -0.71700
O655        O  0.47858494  0.52761623  0.61670345    -0.71600
O656        O  0.98656731  0.54622625  0.71197897    -0.71800
V657        V  0.47803776  0.97583137  0.66884261     1.35200
V658        V  0.48169142  0.53438077  0.66537979     1.35200
C659        C  0.48769324  0.50643865  0.73274469     0.77600
C660        C  0.48314638  0.48464940  0.60282772     0.77700
C661        C  0.07289965  0.01406519  0.66364294     0.77600
C662        C  0.37990676  0.01144271  0.67131724     0.77500
O663        O  0.02283572  0.80411719  0.71602584    -0.71600
O664        O  0.53086365  0.79590725  0.62029434    -0.71800
O665        O  0.45509605  0.79438995  0.66706128    -0.71700
O666        O  0.10179102  0.79493168  0.67168364    -0.71700
O667        O  0.09864504  0.71369470  0.67192447    -0.71700
O668        O  0.45766333  0.71334417  0.67016532    -0.71700
O669        O  0.02795222  0.71099290  0.62227376    -0.71600
O670        O  0.53114396  0.71805445  0.71782257    -0.71800
V671        V  0.02979561  0.79615952  0.66773044     1.35200
V672        V  0.02659175  0.71834479  0.67099146     1.35200
C673        C  0.01908178  0.76565077  0.73417982     0.77600
C674        C  0.03459369  0.74937201  0.60429222     0.77700
C675        C  0.43160136  0.75302937  0.66930680     0.77600
C676        C  0.12497056  0.75331283  0.67136747     0.77500
O677        O  0.22246988  0.98098844  0.61515789    -0.71600
O678        O  0.23000290  0.96047266  0.71107433    -0.71800
O679        O  0.15366032  0.97153403  0.66417071    -0.71700
O680        O  0.29867314  0.97098135  0.66237064    -0.71700
O681        O  0.30416268  0.53068655  0.66671965    -0.71700
O682        O  0.16017532  0.53027816  0.66768576    -0.71700
O683        O  0.23460080  0.53156235  0.71606921    -0.71600
O684        O  0.22992601  0.52828477  0.61844794    -0.71800
V685        V  0.22616713  0.97251413  0.66330455     1.35200
V686        V  0.23214702  0.52863596  0.66724358     1.35200
C687        C  0.22538808  0.48689556  0.60230885     0.77600
C688        C  0.23900693  0.49116220  0.73226645     0.77700
C689        C  0.12943442  0.01256574  0.66581836     0.77600
C690        C  0.32354883  0.01076455  0.66925613     0.77500
O691        O  0.27763776  0.78749053  0.72097666    -0.71600
O692        O  0.27810641  0.79388142  0.62331206    -0.71800
O693        O  0.20652605  0.79173400  0.67223274    -0.71700
O694        O  0.35014742  0.79170145  0.67206371    -0.71700
O695        O  0.35074853  0.71039162  0.67100699    -0.71700
O696        O  0.20555787  0.71068610  0.66662575    -0.71700
O697        O  0.28237904  0.71256711  0.62048411    -0.71600
O698        O  0.27400397  0.70616066  0.71689978    -0.71800
V699        V  0.27826710  0.78961671  0.67211031     1.35200
V700        V  0.27821738  0.71151843  0.66879697     1.35200
C701        C  0.27292114  0.74549517  0.73520557     0.77600
C702        C  0.28181034  0.75392424  0.60545092     0.77700
C703        C  0.18127799  0.75156070  0.67004251     0.77600
C704        C  0.37523318  0.75143744  0.67093312     0.77500
C705        C  0.32098293  0.85424135  0.98920887    -0.16300
C706        C  0.32097060  0.88288942  0.01734563    -0.31400
H707        H  0.32158364  0.87124061  0.96403796     0.12800
H708        H  0.31695301  0.86586718  0.04234237     0.13300
C709        C  0.14696825  0.59207164  0.99064438    -0.16300
C710        C  0.14943497  0.62235471  0.01809381    -0.31400
H711        H  0.14132619  0.60850634  0.96558702     0.12800
H712        H  0.15553170  0.60550296  0.04302346     0.13300
C713        C  0.86112972  0.87841841  0.00542291    -0.16300
C714        C  0.86925919  0.90135454  0.97597047    -0.31400
H715        H  0.85818221  0.90160883  0.02854728     0.12800
H716        H  0.42265148  0.87438132  0.96504751     0.13300
C717        C  0.04705932  0.63102888  0.02150636    -0.16300
C718        C  0.05140431  0.65704162  0.99280263    -0.31400
H719        H  0.62991412  0.64415155  0.03430088     0.12800
H720        H  0.05552773  0.63705193  0.96840186     0.13300
C721        C  0.40750224  0.84819462  0.51370423    -0.16300
C722        C  0.37822143  0.84138243  0.48622810    -0.31400
H723        H  0.39031026  0.85073601  0.53884933     0.12800
H724        H  0.39555242  0.83711021  0.46118369     0.13300
C725        C  0.13496487  0.65257597  0.48666155    -0.16300
C726        C  0.16354503  0.64857413  0.51461365    -0.31400
H727        H  0.15329425  0.65546916  0.46194676     0.12800
H728        H  0.14534879  0.64676667  0.53939234     0.13300
C729        C  0.37151307  0.94474451  0.47804734    -0.16300
C730        C  0.34072127  0.93880695  0.50433674    -0.31400
H731        H  0.35509091  0.95255919  0.45303232     0.12800
H732        H  0.37320358  0.40126463  0.55559100     0.13300
C733        C  0.08930064  0.11712198  0.52679786    -0.16300
C734        C  0.11838832  0.12986810  0.50105000    -0.31400
H735        H  0.10746511  0.10807498  0.55105652     0.12800
H736        H  0.10412762  0.53969481  0.45214401     0.13300
O737        O  0.55796566  0.48286562  0.21721605    -0.71600
O738        O  0.55965550  0.97403447  0.12306063    -0.71800
O739        O  0.55887700  0.05266873  0.16776854    -0.71700
O740        O  0.56702359  0.40981719  0.16787085    -0.71700
O741        O  0.94323312  0.41453503  0.16737378    -0.71700
O742        O  0.94317513  0.06074198  0.16525536    -0.71700
O743        O  0.93349163  0.48944146  0.12137950    -0.71600
O744        O  0.94926529  0.99210154  0.21476150    -0.71800
V745        V  0.55397051  0.98132363  0.17172285     1.35200
V746        V  0.94284795  0.98887393  0.16596379     1.35200
C747        C  0.99233860  0.99603840  0.22852835     0.77600
C748        C  0.97091190  0.98281125  0.09807039     0.77700
C749        C  0.51944090  0.07880199  0.16555968     0.77600
C750        C  0.52756621  0.38431699  0.16152000     0.77500
O751        O  0.93875474  0.23406134  0.11552420    -0.71600
O752        O  0.95090112  0.23883890  0.21264415    -0.71800
O753        O  0.94421519  0.30880407  0.16392297    -0.71700
O754        O  0.94474517  0.16503811  0.16465728    -0.71700
O755        O  0.56388853  0.15804770  0.16429135    -0.71700
O756        O  0.56789569  0.30272567  0.16415409    -0.71700
O757        O  0.55590142  0.23226252  0.21167008    -0.71600
O758        O  0.57756588  0.22832423  0.11568589    -0.71800
V759        V  0.94620036  0.23672353  0.16410993     1.35200
V760        V  0.56482226  0.23034327  0.16367497     1.35200
C761        C  0.54093320  0.22393740  0.09504620     0.77600
C762        C  0.51235486  0.23665993  0.22355236     0.77700
C763        C  0.52819761  0.32793802  0.15897730     0.77600
C764        C  0.52228560  0.13463870  0.16265691     0.77500
O765        O  0.79311364  0.47833874  0.21735318    -0.71600
O766        O  0.78617528  0.97069355  0.11670658    -0.71800
O767        O  0.78928651  0.04963825  0.16184400    -0.71700
O768        O  0.79119135  0.40511662  0.16853380    -0.71700
O769        O  0.70985848  0.40544714  0.16634423    -0.71700
O770        O  0.70825849  0.05042307  0.16607486    -0.71700
O771        O  0.70845199  0.48014930  0.12049825    -0.71600
O772        O  0.70971343  0.98109485  0.21516997    -0.71800
V773        V  0.78732508  0.97789618  0.16539763     1.35200
V774        V  0.70921572  0.97822324  0.16648728     1.35200
C775        C  0.75090613  0.98674240  0.23104611     0.77600
C776        C  0.74461695  0.97261095  0.10079833     0.77700
C777        C  0.74904088  0.07475435  0.16365301     0.77600
C778        C  0.75045633  0.38060866  0.16672629     0.77500
O779        O  0.71056526  0.22421479  0.11496607    -0.71600
O780        O  0.70967339  0.23189739  0.21211459    -0.71800
O781        O  0.70996964  0.29977314  0.16236851    -0.71700
O782        O  0.70937305  0.15596362  0.16493894    -0.71700
O783        O  0.79058398  0.15553165  0.16222930    -0.71700
O784        O  0.79114765  0.29985399  0.16696956    -0.71700
O785        O  0.79105206  0.22608097  0.21280555    -0.71600
O786        O  0.79190395  0.23044491  0.11631427    -0.71800
V787        V  0.71141169  0.22785732  0.16357683     1.35200
V788        V  0.78961689  0.22779629  0.16452839     1.35200
C789        C  0.75153625  0.22795912  0.09930193     0.77600
C790        C  0.75050324  0.23036541  0.22876069     0.77700
C791        C  0.75051606  0.32449066  0.16523422     0.77600
C792        C  0.74973654  0.13101086  0.16346499     0.77500
O793        O  0.50449593  0.43468390  0.28248631    -0.71600
O794        O  0.00778497  0.42679549  0.38077900    -0.71800
O795        O  0.93390526  0.43004212  0.33318426    -0.71700
O796        O  0.57649948  0.42966866  0.33178020    -0.71700
O797        O  0.57573181  0.05480227  0.33468892    -0.71700
O798        O  0.92759589  0.05285356  0.32725604    -0.71700
O799        O  0.50210361  0.06811043  0.38229971    -0.71600
O800        O  0.00003065  0.04708523  0.27936511    -0.71800
V801        V  0.00588536  0.43458800  0.33218397     1.35200
V802        V  0.99950855  0.05500097  0.32826599     1.35200
C803        C  0.99780469  0.00345518  0.26594998     0.77600
C804        C  0.00150259  0.46514841  0.39977963     0.77700
C805        C  0.90796968  0.46982245  0.33485624     0.77600
C806        C  0.60220814  0.46951823  0.33573852     0.77500
O807        O  0.00174014  0.28160485  0.27894496    -0.71600
O808        O  0.50070360  0.28426554  0.37349857    -0.71800
O809        O  0.57637761  0.28031388  0.32812944    -0.71700
O810        O  0.92972788  0.28230833  0.32656341    -0.71700
O811        O  0.93306106  0.20167857  0.33250196    -0.71700
O812        O  0.57438890  0.19902472  0.32543329    -0.71700
O813        O  0.01100238  0.20928719  0.37775335    -0.71600
O814        O  0.50111609  0.19908736  0.27696022    -0.71800
V815        V  0.50425506  0.28077238  0.32515930     1.35200
V816        V  0.50224559  0.20260994  0.32547691     1.35200
C817        C  0.50570214  0.23894858  0.26042539     0.77600
C818        C  0.50207397  0.24408218  0.38994878     0.77700
C819        C  0.60013445  0.23905591  0.32769073     0.77600
C820        C  0.90663990  0.24096631  0.32978741     0.77500
O821        O  0.75566626  0.43126402  0.28606933    -0.71600
O822        O  0.75414225  0.42346218  0.38370120    -0.71800
O823        O  0.68282837  0.42783546  0.33375004    -0.71700
O824        O  0.82739971  0.42759653  0.33550160    -0.71700
O825        O  0.82364329  0.05041522  0.32882265    -0.71700
O826        O  0.68022795  0.05145999  0.33041530    -0.71700
O827        O  0.75335681  0.06101810  0.37811556    -0.71600
O828        O  0.75049714  0.03952403  0.28094678    -0.71800
V829        V  0.75508758  0.42904456  0.33485348     1.35200
V830        V  0.75199363  0.04901808  0.32962392     1.35200
C831        C  0.75165164  0.99546617  0.26824394     0.77600
C832        C  0.75705784  0.46298487  0.40205799     0.77700
C833        C  0.65847510  0.46854865  0.33670103     0.77600
C834        C  0.85192220  0.46850807  0.33575258     0.77500
O835        O  0.75522556  0.19399793  0.28279517    -0.71600
O836        O  0.75127700  0.19975151  0.37945450    -0.71800
O837        O  0.68104449  0.19722639  0.32892018    -0.71700
O838        O  0.82602847  0.19825489  0.33281185    -0.71700
O839        O  0.82500422  0.27909534  0.32778733    -0.71700
O840        O  0.68141573  0.27853108  0.33165734    -0.71700
O841        O  0.75775984  0.28097942  0.37859454    -0.71600
O842        O  0.74902140  0.27525538  0.28134704    -0.71800
V843        V  0.75345531  0.19882761  0.33103902     1.35200
V844        V  0.75327399  0.27692552  0.32992941     1.35200
C845        C  0.75126539  0.23338482  0.26576512     0.77600
C846        C  0.75511138  0.24107457  0.39546252     0.77700
C847        C  0.65645868  0.23805995  0.32959090     0.77600
C848        C  0.85029807  0.23913515  0.33019132     0.77500
O849        O  0.51776736  0.43516382  0.45358872    -0.71600
O850        O  0.00654762  0.43643811  0.55240484    -0.71800
O851        O  0.95619211  0.38458390  0.50430748    -0.71700
O852        O  0.56644877  0.49080369  0.50038545    -0.71700
O853        O  0.51497721  0.10347771  0.51749918    -0.71700
O854        O  0.90353492  0.01405581  0.48432200    -0.71700
O855        O  0.44877204  0.05296762  0.55106721    -0.71600
O856        O  0.97059590  0.06335484  0.44904464    -0.71800
V857        V  0.00790129  0.43219977  0.50363311     1.35200
V858        V  0.95726675  0.05469674  0.49689632     1.35200
C859        C  0.99329386  0.46146770  0.43685960     0.77600
C860        C  0.96680619  0.01480989  0.56135659     0.77700
C861        C  0.91284158  0.39877800  0.49767732     0.77600
C862        C  0.55597964  0.53675304  0.50093751     0.77500
O863        O  0.47555106  0.27987654  0.53995969    -0.71600
O864        O  0.97514028  0.27890157  0.44537460    -0.71800
O865        O  0.92989860  0.23502775  0.49721508    -0.71700
O866        O  0.52175570  0.32303306  0.48629365    -0.71700
O867        O  0.57674007  0.26624291  0.49827893    -0.71700
O868        O  0.98649829  0.17943826  0.48582472    -0.71700
O869        O  0.53384525  0.22134031  0.44376581    -0.71600
O870        O  0.02667603  0.22295943  0.54313003    -0.71800
V871        V  0.47231326  0.27335619  0.49106964     1.35200
V872        V  0.52618795  0.21763622  0.49169972     1.35200
C873        C  0.49725620  0.24604686  0.55696295     0.77600
C874        C  0.50132575  0.24512244  0.42690587     0.77700
C875        C  0.94131752  0.19013658  0.48987892     0.77600
C876        C  0.56660401  0.31109102  0.49097895     0.77500
O877        O  0.72721933  0.43257374  0.45561872    -0.71600
O878        O  0.70071330  0.45662182  0.55068316    -0.71800
O879        O  0.66336381  0.48824475  0.48988761    -0.71700
O880        O  0.76266759  0.40009137  0.51678288    -0.71700
O881        O  0.80722841  0.01300822  0.50541423    -0.71700
O882        O  0.70831507  0.11112992  0.49834700    -0.71700
O883        O  0.75080035  0.06235101  0.54990828    -0.71600
O884        O  0.76567435  0.06123712  0.45287596    -0.71800
V885        V  0.71438784  0.44575583  0.50322252     1.35200
V886        V  0.75699799  0.06076707  0.50143490     1.35200
C887        C  0.75562141  0.46223814  0.43981632     0.77600
C888        C  0.72181969  0.03163691  0.56399778     0.77700
C889        C  0.67186680  0.53392370  0.48559192     0.77600
C890        C  0.80625061  0.41480786  0.52212200     0.77500
O891        O  0.72651796  0.21489992  0.44933201    -0.71600
O892        O  0.73087400  0.21667778  0.54643311    -0.71800
O893        O  0.67557301  0.26241229  0.49993712    -0.71700
O894        O  0.78202373  0.16951863  0.49740785    -0.71700
O895        O  0.83364028  0.23182243  0.50370910    -0.71700
O896        O  0.72809578  0.32278164  0.49191908    -0.71700
O897        O  0.77548004  0.28494269  0.54565986    -0.71600
O898        O  0.78560610  0.27122005  0.44914519    -0.71800
V899        V  0.72950195  0.21690418  0.49795157     1.35200
V900        V  0.78006298  0.27640628  0.49744981     1.35200
C901        C  0.75588189  0.24241900  0.43279077     0.77600
C902        C  0.75214242  0.25254814  0.56241782     0.77700
C903        C  0.68439944  0.30876185  0.49787355     0.77600
C904        C  0.82572812  0.18517526  0.50268097     0.77500
O905        O  0.57523920  0.47206147  0.04691730    -0.71600
O906        O  0.56104005  0.98127256  0.95304086    -0.71800
O907        O  0.60619596  0.01533776  0.01089851    -0.71700
O908        O  0.53882855  0.42392348  0.99080221    -0.71700
O909        O  0.89859513  0.47531899  0.98898645    -0.71700
O910        O  0.98862365  0.07777569  0.01430562    -0.71700
O911        O  0.94264949  0.54538676  0.95464004    -0.71600
O912        O  0.93377554  0.01157564  0.04558432    -0.71800
V913        V  0.55509773  0.96954382  0.00117700     1.35200
V914        V  0.94385897  0.02935423  0.99871506     1.35200
C915        C  0.96666956  0.98484864  0.06023007     0.77600
C916        C  0.53190199  0.01245907  0.93904157     0.77700
C917        C  0.59553494  0.06023860  0.01531345     0.77600
C918        C  0.49197405  0.42680770  0.98808956     0.77500
O919        O  0.93709843  0.23940143  0.94569683    -0.71600
O920        O  0.94218994  0.21804092  0.04220399    -0.71800
O921        O  0.89497540  0.28062426  0.00102294    -0.71700
O922        O  0.98381917  0.17517520  0.98630099    -0.71700
O923        O  0.61985845  0.20293447  0.98652850    -0.71700
O924        O  0.53764152  0.31234221  0.00404556    -0.71700
O925        O  0.58164485  0.24687078  0.04346749    -0.71600
O926        O  0.57347198  0.26946224  0.94716418    -0.71800
V927        V  0.94086517  0.22905843  0.99395658     1.35200
V928        V  0.57699263  0.25682199  0.99514083     1.35200
C929        C  0.53662049  0.25209803  0.92992258     0.77600
C930        C  0.54799609  0.22134660  0.05772171     0.77700
C931        C  0.49101456  0.30738287  0.00628328     0.77600
C932        C  0.60163960  0.16078113  0.98076533     0.77500
O933        O  0.77768170  0.45578658  0.04809385    -0.71600
O934        O  0.78891491  0.98329558  0.95101252    -0.71800
O935        O  0.82371454  0.01915061  0.01201901    -0.71700
O936        O  0.73980828  0.41987346  0.98737876    -0.71700
O937        O  0.67769279  0.47073163  0.99498848    -0.71700
O938        O  0.76089906  0.07038093  0.01137334    -0.71700
O939        O  0.72751524  0.53419590  0.95666151    -0.71600
O940        O  0.71258248  0.00430057  0.04894154    -0.71800
V941        V  0.77972625  0.96751912  0.99807879     1.35200
V942        V  0.71834594  0.01553950  0.00130479     1.35200
C943        C  0.74285800  0.97488101  0.06337119     0.77600
C944        C  0.75632113  0.00977061  0.93611202     0.77700
C945        C  0.80729235  0.06273640  0.01515128     0.77600
C946        C  0.69324552  0.42809778  0.98704324     0.77500
O947        O  0.71458212  0.23182873  0.94844285    -0.71600
O948        O  0.72252806  0.20703396  0.04348854    -0.71800
O949        O  0.67417017  0.27193242  0.00503274    -0.71700
O950        O  0.76444277  0.16652963  0.98697733    -0.71700
O951        O  0.82690484  0.21709336  0.99663649    -0.71700
O952        O  0.73623051  0.32414644  0.00536103    -0.71700
O953        O  0.78190100  0.26281436  0.04881411    -0.71600
O954        O  0.78175704  0.27796820  0.95251881    -0.71800
V955        V  0.72020958  0.22011913  0.99601959     1.35200
V956        V  0.78052819  0.26972128  0.00071558     1.35200
C957        C  0.74760460  0.25785060  0.93421207     0.77600
C958        C  0.75229136  0.23224335  0.06236433     0.77700
C959        C  0.68969295  0.31594093  0.00688950     0.77600
C960        C  0.81108062  0.17382686  0.99016815     0.77500
O961        O  0.57242555  0.51131563  0.87671543    -0.71600
O962        O  0.54117108  0.01328082  0.78387737    -0.71800
O963        O  0.55503475  0.08503255  0.83263693    -0.71700
O964        O  0.55797162  0.44188398  0.82567595    -0.71700
O965        O  0.93921505  0.45372553  0.83556618    -0.71700
O966        O  0.94166862  0.09674508  0.82811904    -0.71700
O967        O  0.94191474  0.52064379  0.78522496    -0.71600
O968        O  0.94200556  0.03064364  0.87935519    -0.71800
V969        V  0.55175838  0.01320109  0.83251133     1.35200
V970        V  0.94369710  0.02491334  0.83087516     1.35200
C971        C  0.52709845  0.01564686  0.90133833     0.77600
C972        C  0.49675183  0.01129532  0.77188386     0.77700
C973        C  0.51501656  0.11047420  0.83363785     0.77600
C974        C  0.51877551  0.41677417  0.83193024     0.77500
O975        O  0.94727878  0.27503822  0.77868388    -0.71600
O976        O  0.93357592  0.27080282  0.87578930    -0.71800
O977        O  0.93915420  0.34631218  0.82994784    -0.71700
O978        O  0.94131631  0.20194609  0.82520267    -0.71700
O979        O  0.55715885  0.19046975  0.82767601    -0.71700
O980        O  0.55857158  0.33519908  0.82511852    -0.71700
O981        O  0.56744038  0.26538820  0.87420886    -0.71600
O982        O  0.54981583  0.25935357  0.77751273    -0.71800
V983        V  0.94186100  0.27387126  0.82740806     1.35200
V984        V  0.55667527  0.26277826  0.82607262     1.35200
C985        C  0.50670626  0.26053877  0.76381511     0.77600
C986        C  0.53008881  0.26129006  0.89343086     0.77700
C987        C  0.51869441  0.36026443  0.83020220     0.77600
C988        C  0.51618176  0.16646021  0.83052386     0.77500
O989        O  0.79877900  0.51174149  0.88347396    -0.71600
O990        O  0.78309379  0.01589651  0.78287090    -0.71800
O991        O  0.78777193  0.08700988  0.83306808    -0.71700
O992        O  0.79056304  0.44062047  0.83341005    -0.71700
O993        O  0.70991390  0.44363065  0.83974607    -0.71700
O994        O  0.70648223  0.08530181  0.83337709    -0.71700
O995        O  0.70653329  0.51134298  0.78976819    -0.71600
O996        O  0.71333989  0.01685621  0.88354654    -0.71800
V997        V  0.78782215  0.01498834  0.83184597     1.35200
V998        V  0.70992456  0.01296451  0.83516538     1.35200
C999        C  0.75525008  0.01449003  0.89869947     0.77600
C1000       C  0.74028854  0.01268585  0.76847485     0.77700
C1001       C  0.74672790  0.11094088  0.83266668     0.77600
C1002       C  0.74933117  0.41740269  0.83610475     0.77500
O1003       O  0.70693511  0.26824312  0.78311530    -0.71600
O1004       O  0.70652082  0.26041279  0.88026834    -0.71800
O1005       O  0.70713454  0.33670318  0.83536750    -0.71700
O1006       O  0.70612011  0.19219606  0.82892296    -0.71700
O1007       O  0.78725151  0.19209330  0.83347521    -0.71700
O1008       O  0.78828552  0.33613275  0.83218274    -0.71700
O1009       O  0.78781990  0.26670012  0.88114764    -0.71600
O1010       O  0.78818635  0.26189041  0.78393884    -0.71800
V1011       V  0.70817223  0.26448312  0.83183096     1.35200
V1012       V  0.78631111  0.26421171  0.83259379     1.35200
C1013       C  0.74773393  0.26540803  0.76703629     0.77600
C1014       C  0.74721910  0.26256057  0.89711396     0.77700
C1015       C  0.74800712  0.36115198  0.83459420     0.77600
C1016       C  0.74653345  0.16734222  0.83156303     0.77500
O1017       O  0.97998277  0.46624873  0.72071585    -0.71600
O1018       O  0.48715220  0.44713374  0.62193479    -0.71800
O1019       O  0.55617186  0.45822582  0.67259430    -0.71700
O1020       O  0.90882928  0.45488368  0.67109849    -0.71700
O1021       O  0.90513975  0.06015782  0.66686958    -0.71700
O1022       O  0.54727378  0.05832111  0.66778437    -0.71700
O1023       O  0.97001180  0.05662872  0.61534759    -0.71600
O1024       O  0.48343708  0.05359262  0.71988224    -0.71800
V1025       V  0.98100520  0.45472704  0.67251211     1.35200
V1026       V  0.97699314  0.05633308  0.66384525     1.35200
C1027       C  0.98047967  0.01947648  0.72883682     0.77600
C1028       C  0.96889475  0.01547160  0.59882125     0.77700
C1029       C  0.57963831  0.49920071  0.66923098     0.77600
C1030       C  0.88518871  0.49588323  0.66799894     0.77500
O1031       O  0.50012509  0.29673855  0.70875410    -0.71600
O1032       O  0.99849555  0.29942533  0.61318939    -0.71800
O1033       O  0.92736623  0.30405475  0.66249196    -0.71700
O1034       O  0.56930932  0.29569154  0.65880888    -0.71700
O1035       O  0.57242968  0.21475740  0.66265929    -0.71700
O1036       O  0.92591292  0.22274192  0.66101688    -0.71700
O1037       O  0.50125565  0.20824239  0.61243585    -0.71600
O1038       O  0.99377498  0.22559091  0.71234593    -0.71800
V1039       V  0.49716133  0.29115726  0.66000750     1.35200
V1040       V  0.50034595  0.21319739  0.66156628     1.35200
C1041       C  0.50134238  0.25741709  0.72625367     0.77600
C1042       C  0.49732623  0.24771081  0.59501959     0.77700
C1043       C  0.90190898  0.26363598  0.66234353     0.77600
C1044       C  0.59562863  0.25623262  0.66125798     0.77500
O1045       O  0.72465430  0.45417476  0.62227719    -0.71600
O1046       O  0.73821999  0.46384622  0.71930760    -0.71800
O1047       O  0.66016204  0.45997231  0.67389095    -0.71700
O1048       O  0.80337649  0.45722991  0.66769921    -0.71700
O1049       O  0.79882246  0.06178389  0.66842026    -0.71700
O1050       O  0.65418095  0.06113164  0.66896808    -0.71700
O1051       O  0.72907714  0.05717557  0.71721262    -0.71600
O1052       O  0.72539155  0.06671787  0.62026930    -0.71800
V1053       V  0.73164606  0.46039464  0.67075547     1.35200
V1054       V  0.72664497  0.06015781  0.66865004     1.35200
C1055       C  0.72159100  0.02787192  0.60142362     0.77600
C1056       C  0.73419631  0.01522165  0.73124891     0.77700
C1057       C  0.63573235  0.50032305  0.67071121     0.77600
C1058       C  0.82898275  0.49732684  0.66758856     0.77500
O1059       O  0.74511781  0.30404494  0.71254962    -0.71600
O1060       O  0.75134483  0.29795617  0.61513054    -0.71800
O1061       O  0.67580051  0.29930380  0.66113081    -0.71700
O1062       O  0.82021835  0.30326455  0.66560820    -0.71700
O1063       O  0.82168727  0.22195029  0.66371251    -0.71700
O1064       O  0.67763371  0.21841306  0.66571558    -0.71700
O1065       O  0.74734870  0.21660386  0.61672323    -0.71600
O1066       O  0.75192862  0.22289113  0.71360306    -0.71800
V1067       V  0.74805531  0.29966804  0.66373479     1.35200
V1068       V  0.74964959  0.22159421  0.66502257     1.35200
C1069       C  0.74818775  0.26424976  0.72956604     0.77600
C1070       C  0.75011383  0.25598719  0.59955387     0.77700
C1071       C  0.65195565  0.25815777  0.66271790     0.77600
C1072       C  0.84567366  0.26315261  0.66394649     0.77500
C1073       C  0.65454824  0.35725679  0.00766624    -0.16300
C1074       C  0.65830348  0.38730621  0.98104658    -0.31400
H1075       H  0.65006030  0.37433573  0.03298588     0.12800
H1076       H  0.66192357  0.36966464  0.95581184     0.13300
C1077       C  0.84155792  0.10465958  0.01890144    -0.16300
C1078       C  0.84507279  0.13161739  0.99064933    -0.31400
H1079       H  0.83862523  0.12474382  0.04337381     0.12800
H1080       H  0.84737382  0.11145363  0.96616651     0.13300
C1081       C  0.46255735  0.35201182  0.00995636    -0.16300
C1082       C  0.46483228  0.38122881  0.98272662    -0.31400
H1083       H  0.46307613  0.36905758  0.03556142     0.12800
H1084       H  0.89507428  0.37216921  0.95139838     0.13300
C1085       C  0.63460690  0.09734297  0.01278494    -0.16300
C1086       C  0.63429837  0.11778330  0.98186642    -0.31400
H1087       H  0.06653589  0.13335072  0.03737031     0.12800
H1088       H  0.63082126  0.09290337  0.95950613     0.13300
C1089       C  0.90263108  0.15198821  0.48476795    -0.16300
C1090       C  0.86700646  0.15070359  0.50813928    -0.31400
H1091       H  0.89131601  0.14701120  0.45805716     0.12800
H1092       H  0.87958431  0.15118976  0.53476118     0.13300
C1093       C  0.60656390  0.34701773  0.48507756    -0.16300
C1094       C  0.64574802  0.34535133  0.50608008    -0.31400
H1095       H  0.61364210  0.35260094  0.45803677     0.12800
H1096       H  0.63732319  0.34536104  0.53329175     0.13300
C1097       C  0.87105617  0.36527917  0.50206913    -0.16300
C1098       C  0.84468847  0.37829107  0.52949646    -0.31400
H1099       H  0.85065875  0.35647731  0.47836412     0.12800
H1100       H  0.85536355  0.92638965  0.52609571     0.13300
C1101       C  0.59654579  0.57176434  0.50069398    -0.16300
C1102       C  0.62983725  0.56447676  0.47582021    -0.31400
H1103       H  0.61053808  0.58002619  0.52648388     0.12800
H1104       H  0.60264000  0.14334298  0.47890706     0.13300
O1105       O  0.55060670  0.98953419  0.22055650    -0.71600
O1106       O  0.57297872  0.48130177  0.12021751    -0.71800
O1107       O  0.56345900  0.55469559  0.16890958    -0.71700
O1108       O  0.55309923  0.90975330  0.17523954    -0.71700
O1109       O  0.93965326  0.91670408  0.16701589    -0.71700
O1110       O  0.94178696  0.55905266  0.17229419    -0.71700
O1111       O  0.93311060  0.98698023  0.11720492    -0.71600
O1112       O  0.95155023  0.48403609  0.21867911    -0.71800
V1113       V  0.56384977  0.48215815  0.16855784     1.35200
V1114       V  0.94405275  0.48677711  0.16993654     1.35200
C1115       C  0.99493180  0.48582766  0.23223380     0.77600
C1116       C  0.97116833  0.48743915  0.10201798     0.77700
C1117       C  0.52207328  0.57832601  0.16784101     0.77600
C1118       C  0.51234225  0.88559305  0.17159668     0.77500
O1119       O  0.92989016  0.73621431  0.12093997    -0.71600
O1120       O  0.94834085  0.74035682  0.21817122    -0.71800
O1121       O  0.93882113  0.81015378  0.16902923    -0.71700
O1122       O  0.93996710  0.66549735  0.17043242    -0.71700
O1123       O  0.55968705  0.66135805  0.16906069    -0.71700
O1124       O  0.55397682  0.80552942  0.17301397    -0.71700
O1125       O  0.55126198  0.73221486  0.21939515    -0.71600
O1126       O  0.56191907  0.73598868  0.12202740    -0.71800
V1127       V  0.94079005  0.73787055  0.16954108     1.35200
V1128       V  0.55516466  0.73354187  0.17074566     1.35200
C1129       C  0.52286796  0.73291531  0.10335315     0.77600
C1130       C  0.50871237  0.73326486  0.23334792     0.77700
C1131       C  0.51285027  0.82907541  0.17030773     0.77600
C1132       C  0.52003747  0.63489323  0.16795052     0.77500
O1133       O  0.79105880  0.98552284  0.21410471    -0.71600
O1134       O  0.78974402  0.47468501  0.11978169    -0.71800
O1135       O  0.79219411  0.54928532  0.16814722    -0.71700
O1136       O  0.78901112  0.90618891  0.16874658    -0.71700
O1137       O  0.70770670  0.90580283  0.16669539    -0.71700
O1138       O  0.71106456  0.54979964  0.17130067    -0.71700
O1139       O  0.70494795  0.97654301  0.11791550    -0.71600
O1140       O  0.71168628  0.47502354  0.21772466    -0.71800
V1141       V  0.78999297  0.47700238  0.16851233     1.35200
V1142       V  0.71183798  0.47758041  0.16903599     1.35200
C1143       C  0.75286578  0.47586929  0.23404755     0.77600
C1144       C  0.74847866  0.47741188  0.10366120     0.77700
C1145       C  0.75181115  0.57436648  0.16961349     0.77600
C1146       C  0.74851034  0.88120307  0.16763295     0.77500
O1147       O  0.71146110  0.72253076  0.11804518    -0.71600
O1148       O  0.70932820  0.73183473  0.21546301    -0.71800
O1149       O  0.70911331  0.79924834  0.16507931    -0.71700
O1150       O  0.71106690  0.65520118  0.16894550    -0.71700
O1151       O  0.79235860  0.65609083  0.16812629    -0.71700
O1152       O  0.79032360  0.80077183  0.16872150    -0.71700
O1153       O  0.79085572  0.73001060  0.21674468    -0.71600
O1154       O  0.79277506  0.72814278  0.11978014    -0.71800
V1155       V  0.71181447  0.72716877  0.16685669     1.35200
V1156       V  0.78999392  0.72853872  0.16826547     1.35200
C1157       C  0.75262392  0.72522740  0.10243589     0.77600
C1158       C  0.74992498  0.73272365  0.23246859     0.77700
C1159       C  0.74927871  0.82479960  0.16715811     0.77600
C1160       C  0.75188649  0.63083868  0.16896272     0.77500
O1161       O  0.49865979  0.96560859  0.29212938    -0.71600
O1162       O  0.00735710  0.98544673  0.38226321    -0.71800
O1163       O  0.93110931  0.97299706  0.33648527    -0.71700
O1164       O  0.57306215  0.97385623  0.33876859    -0.71700
O1165       O  0.57845708  0.51057492  0.33845394    -0.71700
O1166       O  0.93132343  0.51131336  0.33590285    -0.71700
O1167       O  0.50100352  0.50969574  0.38298362    -0.71600
O1168       O  0.00422281  0.52025488  0.28897439    -0.71800
V1169       V  0.00308966  0.97759383  0.33387929     1.35200
V1170       V  0.00320516  0.51240416  0.33753441     1.35200
C1171       C  0.00153689  0.48166825  0.26967505     0.77600
C1172       C  0.00210265  0.02826986  0.39621001     0.77700
C1173       C  0.90466638  0.01195829  0.33226521     0.77600
C1174       C  0.59903536  0.01339069  0.33588740     0.77500
O1175       O  0.99696406  0.78301570  0.28502906    -0.71600
O1176       O  0.50751593  0.79349768  0.38191725    -0.71800
O1177       O  0.57629712  0.78324242  0.33241071    -0.71700
O1178       O  0.92925408  0.78368862  0.33569050    -0.71700
O1179       O  0.93123440  0.70239124  0.33400666    -0.71700
O1180       O  0.57313738  0.70281228  0.33938389    -0.71700
O1181       O  0.00305204  0.70767451  0.38360245    -0.71600
O1182       O  0.50383633  0.69895846  0.28879384    -0.71800
V1183       V  0.50426990  0.78505106  0.33351651     1.35200
V1184       V  0.50115442  0.70726314  0.33725339     1.35200
C1185       C  0.50446148  0.73747193  0.27049855     0.77600
C1186       C  0.50372143  0.75535034  0.40028985     0.77700
C1187       C  0.59941981  0.74199458  0.33583939     0.77600
C1188       C  0.90550256  0.74229729  0.33468695     0.77500
O1189       O  0.75252483  0.95898786  0.28828411    -0.71600
O1190       O  0.74952757  0.98032415  0.38439413    -0.71800
O1191       O  0.67918241  0.97063403  0.33560419    -0.71700
O1192       O  0.82395894  0.97033475  0.33752932    -0.71700
O1193       O  0.82715188  0.50894987  0.33689674    -0.71700
O1194       O  0.68359697  0.50880474  0.34009244    -0.71700
O1195       O  0.75922597  0.50467351  0.38719951    -0.71600
O1196       O  0.75244679  0.51258124  0.28997906    -0.71800
V1197       V  0.75149350  0.97164000  0.33630074     1.35200
V1198       V  0.75552226  0.50710671  0.33854479     1.35200
C1199       C  0.75380131  0.47317892  0.27152909     0.77600
C1200       C  0.74948670  0.02385433  0.39757967     0.77700
C1201       C  0.65506192  0.01158724  0.33385069     0.77600
C1202       C  0.84849907  0.01055868  0.33298199     0.77500
O1203       O  0.74817534  0.69618235  0.28666172    -0.71600
O1204       O  0.75742573  0.70074318  0.38335597    -0.71800
O1205       O  0.68007498  0.69939887  0.33735412    -0.71700
O1206       O  0.82485367  0.69971095  0.33287810    -0.71700
O1207       O  0.82408289  0.78102013  0.33536920    -0.71700
O1208       O  0.68059320  0.78037895  0.33317617    -0.71700
O1209       O  0.75141320  0.78200387  0.38290079    -0.71600
O1210       O  0.75285919  0.77753744  0.28545502    -0.71800
V1211       V  0.75250924  0.70052872  0.33500327     1.35200
V1212       V  0.75224154  0.77865914  0.33422867     1.35200
C1213       C  0.74992139  0.73576595  0.26966842     0.77600
C1214       C  0.75578512  0.74197854  0.39953756     0.77700
C1215       C  0.65561961  0.74023889  0.33550535     0.77600
C1216       C  0.84921720  0.74079350  0.33427752     0.77500
O1217       O  0.52511969  0.00319719  0.45768849    -0.71600
O1218       O  0.99232264  0.98282985  0.54519645    -0.71800
O1219       O  0.95231721  0.94879821  0.48555219    -0.71700
O1220       O  0.56531169  0.04008754  0.51794526    -0.71700
O1221       O  0.51110210  0.55066225  0.50170712    -0.71700
O1222       O  0.90498833  0.44459932  0.49221079    -0.71700
O1223       O  0.45480504  0.50324766  0.54656083    -0.71600
O1224       O  0.96698653  0.49434084  0.45179327    -0.71800
V1225       V  0.00526435  0.99299693  0.49850679     1.35200
V1226       V  0.95712562  0.49110812  0.49965922     1.35200
C1227       C  0.99880946  0.03197829  0.43388195     0.77600
C1228       C  0.97667598  0.46686427  0.56664873     0.77700
C1229       C  0.90961573  0.96772682  0.48048562     0.77600
C1230       C  0.55763729  0.08656486  0.52256236     0.77500
O1231       O  0.55291417  0.78755916  0.54972054    -0.71600
O1232       O  0.04149953  0.78130682  0.45207432    -0.71800
O1233       O  0.00310803  0.82636532  0.50739009    -0.71700
O1234       O  0.59833207  0.74580755  0.49466343    -0.71700
O1235       O  0.54810101  0.68122737  0.49383223    -0.71700
O1236       O  0.94945768  0.76509713  0.51116846    -0.71700
O1237       O  0.48284121  0.72904582  0.45552917    -0.71600
O1238       O  0.00914972  0.71358288  0.55109208    -0.71800
V1239       V  0.54434588  0.78821150  0.50105673     1.35200
V1240       V  0.49611242  0.72641135  0.50311223     1.35200
C1241       C  0.53133499  0.75371794  0.56656946     0.77600
C1242       C  0.50694252  0.75939554  0.43761809     0.77700
C1243       C  0.95928777  0.81143758  0.51139619     0.77600
C1244       C  0.59117681  0.69948674  0.49093055     0.77500
O1245       O  0.71096823  0.00081684  0.44866872    -0.71600
O1246       O  0.69510558  0.00292042  0.54514377    -0.71800
O1247       O  0.65314194  0.05194523  0.49200317    -0.71700
O1248       O  0.75176441  0.95314113  0.50066157    -0.71700
O1249       O  0.81694124  0.46044438  0.51752417    -0.71700
O1250       O  0.71512199  0.55139513  0.49149854    -0.71700
O1251       O  0.75386612  0.51855909  0.55100737    -0.71600
O1252       O  0.77939087  0.49525836  0.45702588    -0.71800
V1253       V  0.70340449  0.00369977  0.49672259     1.35200
V1254       V  0.76557988  0.50513558  0.50422405     1.35200
C1255       C  0.74176245  0.02953896  0.43449079     0.77600
C1256       C  0.72546104  0.48992689  0.56717629     0.77700
C1257       C  0.66364600  0.09793674  0.49527204     0.77600
C1258       C  0.79652824  0.96702427  0.50363828     0.77500
O1259       O  0.78933906  0.71325967  0.45205187    -0.71600
O1260       O  0.80958691  0.72665226  0.54861541    -0.71800
O1261       O  0.74748442  0.67662782  0.50798661    -0.71700
O1262       O  0.85391355  0.76229609  0.49162241    -0.71700
O1263       O  0.80485824  0.82741118  0.49138007    -0.71700
O1264       O  0.69876767  0.74202087  0.51166032    -0.71700
O1265       O  0.76333576  0.79373122  0.54885913    -0.71600
O1266       O  0.73862636  0.77704998  0.45393318    -0.71800
V1267       V  0.79958245  0.72120048  0.50016377     1.35200
V1268       V  0.75223751  0.78369403  0.50143469     1.35200
C1269       C  0.76089696  0.74365040  0.43670581     0.77600
C1270       C  0.78711705  0.76103572  0.56519929     0.77700
C1271       C  0.70520137  0.69523484  0.51281293     0.77600
C1272       C  0.84751578  0.80847117  0.48770011     0.77500
O1273       O  0.55190718  0.95615182  0.04907997    -0.71600
O1274       O  0.57896572  0.49018943  0.94967411    -0.71800
O1275       O  0.61718114  0.53802199  0.00562184    -0.71700
O1276       O  0.50619591  0.92146186  0.99125712    -0.71700
O1277       O  0.89601229  0.98354305  0.98296200    -0.71700
O1278       O  0.97433649  0.58637756  0.01497875    -0.71700
O1279       O  0.95230728  0.04851118  0.95218176    -0.71600
O1280       O  0.93193916  0.51453361  0.04980475    -0.71800
V1281       V  0.57631011  0.48184866  0.99840445     1.35200
V1282       V  0.93827543  0.52958699  0.00212259     1.35200
C1283       C  0.96674926  0.49029488  0.06440974     0.77600
C1284       C  0.54443782  0.51496152  0.93520400     0.77700
C1285       C  0.59700946  0.57937136  0.01046013     0.77600
C1286       C  0.46056761  0.93323718  0.99180900     0.77500
O1287       O  0.92658965  0.74969083  0.94883578    -0.71600
O1288       O  0.92623985  0.73220462  0.04627225    -0.71800
O1289       O  0.87974042  0.79366656  0.00158582    -0.71700
O1290       O  0.97192860  0.68965878  0.99250643    -0.71700
O1291       O  0.59337604  0.73172883  0.99119023    -0.71700
O1292       O  0.50224945  0.82929284  0.01648794    -0.71700
O1293       O  0.55606574  0.76459664  0.05132118    -0.71600
O1294       O  0.53905806  0.79405140  0.95650937    -0.71800
V1295       V  0.92711244  0.74226443  0.99754550     1.35200
V1296       V  0.54629431  0.77903769  0.00386371     1.35200
C1297       C  0.50938213  0.76766447  0.93802849     0.77600
C1298       C  0.52443182  0.73688807  0.06583724     0.77700
C1299       C  0.45594306  0.82143728  0.01510922     0.77600
C1300       C  0.58003789  0.68751796  0.98682143     0.77500
O1301       O  0.77381832  0.95093513  0.04508610    -0.71600
O1302       O  0.79341250  0.48655601  0.95400153    -0.71800
O1303       O  0.83002774  0.52177852  0.01462456    -0.71700
O1304       O  0.73760622  0.91374411  0.98416631    -0.71700
O1305       O  0.67379341  0.96243866  0.99126062    -0.71700
O1306       O  0.76911178  0.57513008  0.01420360    -0.71700
O1307       O  0.72143012  0.02857888  0.95376524    -0.71600
O1308       O  0.71851964  0.51152397  0.05206048    -0.71800
V1309       V  0.78398870  0.47179962  0.00109442     1.35200
V1310       V  0.72440358  0.52207117  0.00441856     1.35200
C1311       C  0.74751759  0.48079402  0.06637443     0.77600
C1312       C  0.76131552  0.51340889  0.93896467     0.77700
C1313       C  0.81523544  0.56586714  0.01778585     0.77600
C1314       C  0.69075145  0.92015650  0.98384005     0.77500
O1315       O  0.71812434  0.72971355  0.95036096    -0.71600
O1316       O  0.72747218  0.70116421  0.04556903    -0.71800
O1317       O  0.67596900  0.76484288  0.00772104    -0.71700
O1318       O  0.77138254  0.66518482  0.98751255    -0.71700
O1319       O  0.83057827  0.71724064  0.00163495    -0.71700
O1320       O  0.73517764  0.82030915  0.00668081    -0.71700
O1321       O  0.78110253  0.76222366  0.05206154    -0.71600
O1322       O  0.78514882  0.77578101  0.95562019    -0.71800
V1323       V  0.72437310  0.71587509  0.99794230     1.35200
V1324       V  0.78197241  0.76805829  0.00386606     1.35200
C1325       C  0.75122234  0.75644306  0.93666919     0.77600
C1326       C  0.75399591  0.72905005  0.06517181     0.77700
C1327       C  0.68911570  0.80982931  0.00807415     0.77600
C1328       C  0.81738937  0.67414821  0.99263330     0.77500
O1329       O  0.56413502  0.01236234  0.88126843    -0.71600
O1330       O  0.54303240  0.51624851  0.78057129    -0.71800
O1331       O  0.55836892  0.58630167  0.83148106    -0.71700
O1332       O  0.55262128  0.94158718  0.83144133    -0.71700
O1333       O  0.94318441  0.95282129  0.83336751    -0.71700
O1334       O  0.94259608  0.59827963  0.83154029    -0.71700
O1335       O  0.94157333  0.01933208  0.78250321    -0.71600
O1336       O  0.93889006  0.53167871  0.88230971    -0.71800
V1337       V  0.55648607  0.51404355  0.82872435     1.35200
V1338       V  0.94219423  0.52616538  0.83373262     1.35200
C1339       C  0.53689040  0.51499978  0.89782619     0.77600
C1340       C  0.49830101  0.51174958  0.76956728     0.77700
C1341       C  0.51796850  0.61090504  0.83494888     0.77600
C1342       C  0.51280228  0.91718452  0.83656109     0.77500
O1343       O  0.96178286  0.77416976  0.78046692    -0.71600
O1344       O  0.93065833  0.77558148  0.87629249    -0.71800
O1345       O  0.94502032  0.84710392  0.82875878    -0.71700
O1346       O  0.94563171  0.70334009  0.82766917    -0.71700
O1347       O  0.55768855  0.69299984  0.83963947    -0.71700
O1348       O  0.55492812  0.83726608  0.83555050    -0.71700
O1349       O  0.55278863  0.77100363  0.88603087    -0.71600
O1350       O  0.56128620  0.76040283  0.78948028    -0.71800
V1351       V  0.94728880  0.77518261  0.82847487     1.35200
V1352       V  0.55510126  0.76531856  0.83765925     1.35200
C1353       C  0.52223711  0.76106019  0.77105284     0.77600
C1354       C  0.51107313  0.76850936  0.90075519     0.77700
C1355       C  0.51367596  0.86103704  0.83591727     0.77600
C1356       C  0.51762123  0.66737748  0.83591574     0.77500
O1357       O  0.79457702  0.01351581  0.88078723    -0.71600
O1358       O  0.78778917  0.51218835  0.78578642    -0.71800
O1359       O  0.79731523  0.58451595  0.83546233    -0.71700
O1360       O  0.79191924  0.94316084  0.83052953    -0.71700
O1361       O  0.71126999  0.94052554  0.83680488    -0.71700
O1362       O  0.71604805  0.58771244  0.83571901    -0.71700
O1363       O  0.70215323  0.00922392  0.78695717    -0.71600
O1364       O  0.71795584  0.52053816  0.88636782    -0.71800
V1365       V  0.79211587  0.51247415  0.83462448     1.35200
V1366       V  0.71423337  0.51580569  0.83793658     1.35200
C1367       C  0.75978498  0.51631007  0.90146040     0.77600
C1368       C  0.74500082  0.51026520  0.77140450     0.77700
C1369       C  0.75775571  0.61080970  0.83519466     0.77600
C1370       C  0.75265532  0.91708092  0.83401211     0.77500
O1371       O  0.72401309  0.76437885  0.78332182    -0.71600
O1372       O  0.71323556  0.76005120  0.88088610    -0.71800
O1373       O  0.71553551  0.83460258  0.83401430    -0.71700
O1374       O  0.71905127  0.69125304  0.83029895    -0.71700
O1375       O  0.79977886  0.69221843  0.83779605    -0.71700
O1376       O  0.79680915  0.83734018  0.83563092    -0.71700
O1377       O  0.79424089  0.76743178  0.88507718    -0.71600
O1378       O  0.80521428  0.76221816  0.78866581    -0.71800
V1379       V  0.71952124  0.76280550  0.83217730     1.35200
V1380       V  0.79744919  0.76482644  0.83673028     1.35200
C1381       C  0.76686849  0.76304831  0.76961284     0.77600
C1382       C  0.75254642  0.76226550  0.89943108     0.77700
C1383       C  0.75521453  0.86074467  0.83464271     0.77600
C1384       C  0.75932594  0.66701323  0.83431782     0.77500
O1385       O  0.97508031  0.97833879  0.71260872    -0.71600
O1386       O  0.47597795  0.97642128  0.62022898    -0.71800
O1387       O  0.55010043  0.97707157  0.66826443    -0.71700
O1388       O  0.90269736  0.97890972  0.66332267    -0.71700
O1389       O  0.91096955  0.53560546  0.66545564    -0.71700
O1390       O  0.55379019  0.53837075  0.66425061    -0.71700
O1391       O  0.97834984  0.52020373  0.61588023    -0.71600
O1392       O  0.48570720  0.54428977  0.71382198    -0.71800
V1393       V  0.97463457  0.97823267  0.66389724     1.35200
V1394       V  0.98284063  0.53163062  0.66409063     1.35200
C1395       C  0.98360732  0.51052686  0.73261453     0.77600
C1396       C  0.97860553  0.47583228  0.60387015     0.77700
C1397       C  0.57343741  0.01859859  0.66799020     0.77600
C1398       C  0.87925078  0.02020266  0.66498545     0.77500
O1399       O  0.52428298  0.79925084  0.71719737    -0.71600
O1400       O  0.03659767  0.79176333  0.61925931    -0.71800
O1401       O  0.95769125  0.80005177  0.66375986    -0.71700
O1402       O  0.59963507  0.79965375  0.67042564    -0.71700
O1403       O  0.60175445  0.71838671  0.66785865    -0.71700
O1404       O  0.95473618  0.71948412  0.67003418    -0.71700
O1405       O  0.52813921  0.71446806  0.62041125    -0.71600
O1406       O  0.02403445  0.72297744  0.71984658    -0.71800
V1407       V  0.52745043  0.79573002  0.66875776     1.35200
V1408       V  0.52971431  0.71761946  0.66907599     1.35200
C1409       C  0.52611716  0.75930549  0.73388431     0.77600
C1410       C  0.53098513  0.75468867  0.60392908     0.77700
C1411       C  0.93150959  0.76066224  0.66730610     0.77600
C1412       C  0.62541761  0.75972380  0.66827960     0.77500
O1413       O  0.72008487  0.98557683  0.61551139    -0.71600
O1414       O  0.73315401  0.97595254  0.71258043    -0.71800
O1415       O  0.65484372  0.97981189  0.66720108    -0.71700
O1416       O  0.79813675  0.98096365  0.66095128    -0.71700
O1417       O  0.80516903  0.53854330  0.66747343    -0.71700
O1418       O  0.66064358  0.54075012  0.66833672    -0.71700
O1419       O  0.73558237  0.54514185  0.71655503    -0.71600
O1420       O  0.73083238  0.53526202  0.61958575    -0.71800
V1421       V  0.72649360  0.98215821  0.66413184     1.35200
V1422       V  0.73293982  0.53839383  0.66808479     1.35200
C1423       C  0.72557977  0.49328316  0.60451758     0.77600
C1424       C  0.73961138  0.50627273  0.73426434     0.77700
C1425       C  0.62975122  0.02011083  0.66806698     0.77600
C1426       C  0.82314980  0.02119889  0.66471270     0.77500
O1427       O  0.77723068  0.80296439  0.71651756    -0.71600
O1428       O  0.77923077  0.80196596  0.61923542    -0.71800
O1429       O  0.70608665  0.80184373  0.66756928    -0.71700
O1430       O  0.85075424  0.80261295  0.66803607    -0.71700
O1431       O  0.85049929  0.72142229  0.67030003    -0.71700
O1432       O  0.70677946  0.72059696  0.66407840    -0.71700
O1433       O  0.78458999  0.72067631  0.61867774    -0.71600
O1434       O  0.77342847  0.72153117  0.71569306    -0.71800
V1435       V  0.77839769  0.80081797  0.66783565     1.35200
V1436       V  0.77876775  0.72265096  0.66718440     1.35200
C1437       C  0.77256204  0.76249846  0.73244813     0.77600
C1438       C  0.78456892  0.76129790  0.60257368     0.77700
C1439       C  0.68167935  0.76088920  0.66643231     0.77600
C1440       C  0.87533193  0.76186105  0.66859046     0.77500
C1441       C  0.65221921  0.84963569  0.00617184    -0.16300
C1442       C  0.65702684  0.87789719  0.97859680    -0.31400
H1443       H  0.64536505  0.86843225  0.03067745     0.12800
H1444       H  0.66267512  0.85835943  0.95417183     0.13300
C1445       C  0.85110012  0.60652555  0.02098289    -0.16300
C1446       C  0.85343928  0.63369469  0.99279772    -0.31400
H1447       H  0.84966753  0.62648748  0.04555715     0.12800
H1448       H  0.85558755  0.61351280  0.96833549     0.13300
C1449       C  0.42431061  0.86468860  0.01781566    -0.16300
C1450       C  0.42434371  0.89330258  0.99000709    -0.31400
H1451       H  0.42675829  0.88369043  0.04273160     0.12800
H1452       H  0.87174919  0.87828268  0.95272832     0.13300
C1453       C  0.62705733  0.62404880  0.00981661    -0.16300
C1454       C  0.61794653  0.64989780  0.98173059    -0.31400
H1455       H  0.03918524  0.65110458  0.04544183     0.12800
H1456       H  0.61465446  0.62957568  0.95732297     0.13300
C1457       C  0.91870599  0.84587094  0.51056813    -0.16300
C1458       C  0.89088626  0.83869928  0.48244109    -0.31400
H1459       H  0.90026857  0.85116185  0.53511179     0.12800
H1460       H  0.90952253  0.83162153  0.45809915     0.13300
C1461       C  0.63398956  0.66873187  0.48613639    -0.16300
C1462       C  0.66223194  0.66410645  0.51413990    -0.31400
H1463       H  0.65194087  0.67234125  0.46133483     0.12800
H1464       H  0.64443999  0.66315983  0.53910275     0.13300
C1465       C  0.86530664  0.93804747  0.47388168    -0.16300
C1466       C  0.83692138  0.93210017  0.50146798    -0.31400
H1467       H  0.84653922  0.94573424  0.44959841     0.12800
H1468       H  0.86522897  0.38627717  0.55329185     0.13300
C1469       C  0.59841295  0.12132721  0.52964164    -0.16300
C1470       C  0.62379949  0.13326810  0.50175520    -0.31400
H1471       H  0.62002763  0.11226075  0.55254315     0.12800
H1472       H  0.61525414  0.55577231  0.45020569     0.13300
loop_ 
_geom_bond_atom_site_label_1 
_geom_bond_atom_site_label_2 
_geom_bond_distance 
_geom_bond_site_symmetry_2 
_ccdc_geom_bond_type 
O1          V377   1.910       .  S
O1         C1115   1.264   1_455  A
O2            V9   1.908       .  S
O2          C748   1.267   1_455  A
O3            V9   1.923   1_545  S
O3           C13   1.269   1_455  A
O4          V377   1.926       .  S
O4           C14   1.270   1_455  A
O5          V378   1.923       .  S
O5          C750   1.270       .  A
O6           V10   1.929   1_545  S
O6          C749   1.273       .  A
O7          V378   1.892       .  S
O7          C380   1.264       .  A
O8           V10   1.903       .  S
O8           C11   1.262       .  A
V9          O369   1.911       .  S
V9          O372   1.921       .  S
V9          V746   2.084   1_455  T
V10         O373   1.939       .  S
V10         O375   1.888       .  S
V10         V745   2.085       .  T
C11        O1105   1.269       .  A
C11          C67   1.474   1_565  S
C12         O738   1.266       .  A
C12         O375   1.260       .  A
C12         C179   1.462       .  S
C13         O742   1.269       .  A
C13          C28   1.495       .  S
C14         O741   1.271       .  A
C14          C27   1.505       .  S
O15          V23   1.905       .  S
O15         C761   1.267       .  A
O16          V23   1.901       .  S
O16         C762   1.263       .  A
O17          V23   1.922       .  S
O17         C763   1.269       .  A
O18          V23   1.915       .  S
O18         C764   1.266       .  A
O19          V24   1.928       .  S
O19          C28   1.271   1_455  A
O20          V24   1.930       .  S
O20          C27   1.272   1_455  A
O21          V24   1.886       .  S
O21          C26   1.258   1_455  A
O22          V24   1.882       .  S
O22          C25   1.260   1_455  A
V23         V760   2.085       .  T
V24         V759   2.087   1_455  T
C25         O751   1.263       .  A
C25         C194   1.453       .  S
C26         O752   1.263       .  A
C26          C81   1.444       .  S
C27         O753   1.269       .  A
C28         O754   1.267       .  A
O29         V405   1.904       .  S
O29         C407   1.264       .  A
O30          V37   1.896       .  S
O30          C40   1.264       .  A
O31          V37   1.920       .  S
O31          C41   1.267       .  A
O32         V405   1.925       .  S
O32          C42   1.268       .  A
O33         V406   1.917       .  S
O33          C42   1.269       .  A
O34          V38   1.931       .  S
O34          C41   1.273       .  A
O35         V406   1.901       .  S
O35         C408   1.263       .  A
O36          V38   1.896       .  S
O36          C39   1.262       .  A
V37         O397   1.904       .  S
V37         O400   1.926   1_545  S
V37          V38   2.083       .  T
V38         O401   1.939   1_545  S
V38         O403   1.895       .  S
C39         O397   1.264       .  A
C39          C95   1.458       .  S
C40         O403   1.261       .  A
C40         C207   1.457       .  S
C41          C56   1.502       .  S
C42          C55   1.495       .  S
O43          V51   1.904       .  S
O43          C53   1.266       .  A
O44          V51   1.900       .  S
O44          C54   1.263       .  A
O45          V51   1.907       .  S
O45          C55   1.265       .  A
O46          V51   1.918       .  S
O46          C56   1.267       .  A
O47          V52   1.932       .  S
O47          C56   1.273       .  A
O48          V52   1.933       .  S
O48          C55   1.273       .  A
O49          V52   1.881       .  S
O49          C54   1.258       .  A
O50          V52   1.888       .  S
O50          C53   1.259       .  A
V51          V52   2.086       .  T
C53         C222   1.457       .  S
C54         C109   1.444       .  S
O57         V801   1.909       .  S
O57        C1171   1.266       .  A
O58          V65   1.907       .  S
O58          C68   1.264       .  A
O59          V65   1.928       .  S
O59          C69   1.272       .  A
O60         V801   1.927       .  S
O60          C70   1.272       .  A
O61         V802   1.931   1_455  S
O61         C438   1.271       .  A
O62          V66   1.931       .  S
O62         C437   1.270       .  A
O63         V802   1.918       .  S
O63        C1172   1.266   1_655  A
O64          V66   1.916       .  S
O64          C67   1.268       .  A
V65         O793   1.907       .  S
V65         O796   1.927       .  S
V65         V434   2.084       .  T
V66         O797   1.922       .  S
V66         O799   1.926       .  S
V66         V433   2.083   1_545  T
C67        O1161   1.262   1_545  A
C68        O1167   1.264       .  A
C68         C123   1.465       .  S
C69         O430   1.269       .  A
C69          C98   1.504       .  S
C70         O429   1.271       .  A
C70          C97   1.510       .  S
O71         V815   1.897       .  S
O71         C817   1.262       .  A
O72          V79   1.883       .  S
O72          C82   1.259       .  A
O73          V79   1.932       .  S
O73          C83   1.271       .  A
O74         V815   1.924       .  S
O74          C84   1.269       .  A
O75         V816   1.928       .  S
O75          C84   1.272       .  A
O76          V80   1.918       .  S
O76          C83   1.269       .  A
O77         V816   1.886       .  S
O77         C818   1.260       .  A
O78          V80   1.894   1_655  S
O78          C81   1.262       .  A
V79         O807   1.886       .  S
V79         O810   1.925   1_455  S
V79          V80   2.086       .  T
V80         O811   1.928   1_455  S
V80         O813   1.889       .  S
C81         O807   1.260   1_655  A
C82         O813   1.261       .  A
C82         C138   1.440       .  S
C83         C111   1.501       .  S
C84         C112   1.504       .  S
O85          V93   1.916       .  S
O85         C463   1.269       .  A
O86          V93   1.927       .  S
O86          C96   1.269       .  A
O87          V93   1.919       .  S
O87          C97   1.268       .  A
O88          V93   1.920       .  S
O88          C98   1.268       .  A
O89          V94   1.937       .  S
O89         C466   1.274       .  A
O90          V94   1.937       .  S
O90         C465   1.273       .  A
O91          V94   1.902       .  S
O91         C464   1.263       .  A
O92          V94   1.896       .  S
O92          C95   1.262       .  A
V93         V462   2.083       .  T
V94         V461   2.084   1_545  T
C95         O453   1.264   1_545  A
C96         O459   1.263       .  A
C96         C151   1.478       .  S
C97         O458   1.275       .  A
C98         O457   1.273       .  A
O99         V107   1.897       .  S
O99         C109   1.263       .  A
O100        V107   1.905       .  S
O100        C110   1.265       .  A
O101        V107   1.914       .  S
O101        C111   1.267       .  A
O102        V107   1.922       .  S
O102        C112   1.269       .  A
O103        V108   1.931       .  S
O103        C112   1.272       .  A
O104        V108   1.935       .  S
O104        C111   1.273       .  A
O105        V108   1.892       .  S
O105        C110   1.261       .  A
O106        V108   1.885       .  S
O106        C109   1.258       .  A
V107        V108   2.087       .  T
C110        C165   1.459       .  S
O113        V857   1.918       .  S
O113        C859   1.267   1_455  A
O114        V121   1.906       .  S
O114        C492   1.266       .  A
O115        V121   1.867       .  S
O115        C125   1.245       .  A
O116        V857   1.852       .  S
O116        C126   1.259       .  A
O117        V858   1.848   1_455  S
O117        C494   1.240       .  A
O118        V122   1.852       .  S
O118        C493   1.254   1_545  A
O119        V858   1.912       .  S
O119        C860   1.269       .  A
O120        V122   1.928       .  S
O120        C491   1.269       .  A
V121        O849   1.914       .  S
V121        O852   1.851       .  S
V121        V490   2.086       .  T
V122        O853   1.861       .  S
V122        O855   1.912       .  S
V122        V489   2.088   1_545  T
C123        O849   1.267       .  A
C123        O488   1.262       .  A
C124        O482   1.258   1_545  A
C124        O855   1.268       .  A
C124        C292   1.461       .  S
C125        O486   1.264       .  A
C125        C361   1.441       .  S
C126        O485   1.254       .  A
C126        C365   1.422       .  S
O127        V135   1.907       .  S
O127        C137   1.267   1_655  A
O128        V871   1.889       .  S
O128        C874   1.262       .  A
O129        V871   1.881       .  S
O129        C139   1.264       .  A
O130        V135   1.887   1_455  S
O130        C140   1.248       .  A
O131        V136   1.879       .  S
O131        C140   1.263       .  A
O132        V872   1.881       .  S
O132        C139   1.249       .  A
O133        V136   1.891       .  S
O133        C138   1.263       .  A
O134        V872   1.918       .  S
O134        C873   1.268       .  A
V135        O864   1.884       .  S
V135        O865   1.883       .  S
V135        V136   2.066   1_655  T
V136        O868   1.872   1_455  S
V136        O870   1.913       .  S
C137        O870   1.266       .  A
C137        C306   1.475       .  S
C138        O864   1.261   1_455  A
C139        C353   1.462       .  S
C140        C357   1.458       .  S
O141        V149   1.922       .  S
O141        C151   1.268       .  A
O142        V149   1.909       .  S
O142        C520   1.268       .  A
O143        V149   1.854       .  S
O143        C153   1.254       .  A
O144        V149   1.857       .  S
O144        C154   1.240       .  A
O145        V150   1.852       .  S
O145        C522   1.259   1_545  A
O146        V150   1.871       .  S
O146        C521   1.244       .  A
O147        V150   1.902       .  S
O147        C152   1.264       .  A
O148        V150   1.910       .  S
O148        C519   1.266       .  A
V149        V518   2.088       .  T
V150        V517   2.087       .  T
C151        O516   1.264       .  A
C152        O510   1.265       .  A
C152        C319   1.464       .  S
C153        O514   1.260       .  A
C153        C366   1.435       .  S
C154        O513   1.266       .  A
C154        C362   1.446       .  S
O155        V163   1.899       .  S
O155        C165   1.264       .  A
O156        V163   1.895       .  S
O156        C166   1.265       .  A
O157        V163   1.882       .  S
O157        C167   1.263       .  A
O158        V163   1.890       .  S
O158        C168   1.251       .  A
O159        V164   1.872       .  S
O159        C168   1.260       .  A
O160        V164   1.872       .  S
O160        C167   1.249       .  A
O161        V164   1.904       .  S
O161        C166   1.263       .  A
O162        V164   1.899       .  S
O162        C165   1.265       .  A
V163        V164   2.071       .  T
C166        C334   1.459       .  S
C167        C358   1.459       .  S
C168        C354   1.453       .  S
O169        V545   1.893   1_554  S
O169       C1283   1.262   1_455  A
O170        V177   1.885       .  S
O170        C180   1.259   1_465  A
O171        V177   1.886   1_544  S
O171        C181   1.259       .  A
O172        V545   1.894   1_655  S
O172        C182   1.267       .  A
O173        V546   1.883   1_556  S
O173        C918   1.257       .  A
O174        V178   1.884       .  S
O174        C917   1.263       .  A
O175        V546   1.886   1_556  S
O175       C1284   1.261       .  A
O176        V178   1.887       .  S
O176        C179   1.261   1_545  A
V177        O537   1.903   1_456  S
V177        O540   1.889   1_455  S
V177        V914   2.085   1_465  T
V178        O541   1.887   1_544  S
V178        O543   1.905   1_554  S
V178        V913   2.089   1_545  T
C179       O1273   1.266       .  A
C180       O1279   1.268       .  A
C180        C235   1.459       .  S
C181        O910   1.253   1_455  A
C181        C349   1.423       .  S
C182        O909   1.238       .  A
C182        C346   1.436       .  S
O183        V191   1.882       .  S
O183        C929   1.259       .  A
O184        V191   1.896   1_554  S
O184        C930   1.263       .  A
O185        V191   1.882   1_554  S
O185        C931   1.257       .  A
O186        V191   1.892       .  S
O186        C932   1.265       .  A
O187        V192   1.884       .  S
O187        C196   1.257       .  A
O188        V192   1.876   1_654  S
O188        C195   1.264       .  A
O189        V192   1.875   1_554  S
O189        C194   1.258   1_455  A
O190        V192   1.888       .  S
O190        C193   1.261   1_455  A
V191        V928   2.090       .  T
V192        V927   2.092   1_455  T
C193        O919   1.267       .  A
C193        C250   1.461       .  S
C194        O920   1.266       .  A
C195        O921   1.242       .  A
C195        C345   1.434       .  S
C196        O922   1.257   1_455  A
C196        C350   1.432       .  S
O197        V573   1.904       .  S
O197        C575   1.264       .  A
O198        V205   1.896   1_556  S
O198        C208   1.261   1_545  A
O199        V205   1.858   1_556  S
O199        C209   1.260       .  A
O200        V573   1.878       .  S
O200        C210   1.253       .  A
O201        V574   1.848       .  S
O201        C210   1.256       .  A
O202        V206   1.866   1_545  S
O202        C209   1.251       .  A
O203        V574   1.910   1_556  S
O203        C576   1.268       .  A
O204        V206   1.895   1_554  S
O204        C207   1.262   1_565  A
V205        O565   1.893       .  S
V205        O568   1.864   1_545  S
V205        V206   2.096   1_544  T
V206        O569   1.848   1_556  S
V206        O571   1.894       .  S
C207        O565   1.263       .  A
C208        O571   1.265       .  A
C208        C263   1.457       .  S
C209        C341   1.420       .  S
C210        C338   1.429       .  S
O211        V219   1.892       .  S
O211        C221   1.261       .  A
O212        V219   1.900   1_554  S
O212        C222   1.265       .  A
O213        V219   1.858       .  S
O213        C223   1.258       .  A
O214        V219   1.860   1_554  S
O214        C224   1.249       .  A
O215        V220   1.849   1_554  S
O215        C224   1.259       .  A
O216        V220   1.879       .  S
O216        C223   1.254       .  A
O217        V220   1.888   1_554  S
O217        C222   1.261       .  A
O218        V220   1.893       .  S
O218        C221   1.263       .  A
V219        V220   2.093       .  T
C221        C278   1.451       .  S
C223        C337   1.436       .  S
C224        C342   1.410       .  S
O225        V601   1.898       .  S
O225        C603   1.264   1_455  A
O226        V233   1.904       .  S
O226        C236   1.265   1_455  A
O227        V233   1.920       .  S
O227        C237   1.268   1_455  A
O228        V601   1.924       .  S
O228        C238   1.270   1_455  A
O229        V602   1.931       .  S
O229        C974   1.273       .  A
O230        V234   1.930       .  S
O230        C973   1.273       .  A
O231        V602   1.898       .  S
O231       C1340   1.260       .  A
O232        V234   1.895       .  S
O232        C971   1.262       .  A
V233        O593   1.902       .  S
V233        O596   1.921   1_545  S
V233        V970   2.086   1_455  T
V234        O597   1.934   1_545  S
V234        O599   1.890       .  S
V234        V969   2.084       .  T
C235        O593   1.265   1_655  A
C235        O968   1.261       .  A
C236       O1335   1.260       .  A
C236       C1027   1.454       .  S
C237        O966   1.270       .  A
C237        C252   1.496       .  S
C238        O965   1.273       .  A
C238        C251   1.510       .  S
O239        V247   1.914       .  S
O239        C985   1.267       .  A
O240        V247   1.897       .  S
O240        C986   1.265       .  A
O241        V247   1.924       .  S
O241        C987   1.269       .  A
O242        V247   1.918       .  S
O242        C988   1.267       .  A
O243        V248   1.923       .  S
O243        C252   1.270   1_455  A
O244        V248   1.926       .  S
O244        C251   1.271   1_455  A
O245        V248   1.892       .  S
O245        C250   1.263   1_455  A
O246        V248   1.902       .  S
O246        C249   1.262   1_455  A
V247        V984   2.085       .  T
V248        V983   2.085   1_455  T
C249        O975   1.266       .  A
C249        C305   1.467       .  S
C250        O976   1.264       .  A
C251        O977   1.272       .  A
C252        O978   1.268       .  A
O253        V629   1.907       .  S
O253        C631   1.265       .  A
O254        V261   1.912       .  S
O254        C264   1.269       .  A
O255        V261   1.919   1_545  S
O255        C265   1.267       .  A
O256        V629   1.923       .  S
O256        C266   1.269       .  A
O257        V630   1.918       .  S
O257        C266   1.269       .  A
O258        V262   1.941   1_545  S
O258        C265   1.275       .  A
O259        V630   1.892       .  S
O259        C632   1.260       .  A
O260        V262   1.881       .  S
O260        C263   1.258       .  A
V261        O621   1.910       .  S
V261        O624   1.923       .  S
V261        V262   2.085       .  T
V262        O625   1.936       .  S
V262        O627   1.887       .  S
C263        O621   1.266       .  A
C264        O627   1.257       .  A
C264        C320   1.459       .  S
C265        C280   1.509       .  S
C266        C279   1.495       .  S
O267        V275   1.903       .  S
O267        C277   1.265       .  A
O268        V275   1.898       .  S
O268        C278   1.264       .  A
O269        V275   1.914       .  S
O269        C279   1.267       .  A
O270        V275   1.930       .  S
O270        C280   1.270       .  A
O271        V276   1.930       .  S
O271        C280   1.273       .  A
O272        V276   1.928       .  S
O272        C279   1.271       .  A
O273        V276   1.885       .  S
O273        C278   1.259       .  A
O274        V276   1.891       .  S
O274        C277   1.260       .  A
V275        V276   2.086       .  T
C277        C333   1.455       .  S
O281        V289   1.901       .  S
O281        C659   1.264       .  A
O282       V1025   1.905       .  S
O282       C1396   1.263       .  A
O283       V1025   1.928   1_455  S
O283        C293   1.270       .  A
O284        V289   1.933       .  S
O284        C294   1.271       .  A
O285        V290   1.922       .  S
O285        C662   1.270       .  A
O286       V1026   1.933   1_455  S
O286        C661   1.273       .  A
O287        V290   1.901       .  S
O287        C292   1.263       .  A
O288       V1026   1.893       .  S
O288       C1027   1.261       .  A
V289       O1018   1.903       .  S
V289       O1019   1.917       .  S
V289        V658   2.084       .  T
V290       O1022   1.928       .  S
V290       O1024   1.899       .  S
V290        V657   2.085   1_545  T
C291        O649   1.264   1_545  A
C291       O1024   1.263       .  A
C291        C972   1.462       .  S
C292       O1386   1.264   1_545  A
C293        O654   1.271       .  A
C293        C321   1.504       .  S
C294        O653   1.272       .  A
C294        C322   1.511       .  S
O295        V303   1.896   1_455  S
O295        C305   1.260   1_455  A
O296       V1039   1.909       .  S
O296       C1042   1.266       .  A
O297       V1039   1.921       .  S
O297        C307   1.271       .  A
O298        V303   1.937   1_455  S
O298        C308   1.275       .  A
O299        V304   1.915   1_455  S
O299        C308   1.265       .  A
O300       V1040   1.933       .  S
O300        C307   1.270       .  A
O301        V304   1.919   1_455  S
O301        C306   1.269       .  A
O302       V1040   1.912       .  S
O302       C1041   1.267       .  A
V303       O1032   1.898       .  S
V303       O1033   1.935       .  S
V303        V304   2.084       .  T
V304       O1036   1.914       .  S
V304       O1038   1.914       .  S
C305       O1038   1.268       .  A
C306       O1032   1.262   1_455  A
C307        C336   1.505       .  S
C308        C335   1.503       .  S
O309        V317   1.894       .  S
O309        C687   1.261       .  A
O310        V317   1.889       .  S
O310        C688   1.259       .  A
O311        V317   1.932       .  S
O311        C321   1.272       .  A
O312        V317   1.940       .  S
O312        C322   1.274       .  A
O313        V318   1.918       .  S
O313        C690   1.268       .  A
O314        V318   1.926       .  S
O314        C689   1.270       .  A
O315        V318   1.902       .  S
O315        C320   1.265   1_545  A
O316        V318   1.905       .  S
O316        C319   1.264       .  A
V317        V686   2.085       .  T
V318        V685   2.084   1_545  T
C319        O677   1.263   1_545  A
C320        O678   1.261       .  A
C321        O682   1.268       .  A
C322        O681   1.268       .  A
O323        V331   1.910       .  S
O323        C333   1.268       .  A
O324        V331   1.911       .  S
O324        C334   1.267       .  A
O325        V331   1.918       .  S
O325        C335   1.266       .  A
O326        V331   1.911       .  S
O326        C336   1.266       .  A
O327        V332   1.943       .  S
O327        C336   1.275       .  A
O328        V332   1.934       .  S
O328        C335   1.275       .  A
O329        V332   1.882       .  S
O329        C334   1.258       .  A
O330        V332   1.885       .  S
O330        C333   1.257       .  A
V331        V332   2.086       .  T
C337        C338   1.336   1_556  D
C337        H339   1.088       .  S
C338        H340   1.088       .  S
C341        C342   1.327   1_556  D
C341        H343   1.089       .  S
C342        H344   1.089       .  S
C345        C346   1.326   1_554  D
C345        H347   1.089       .  S
C346       H1084   1.091       .  S
H348       C1082   1.090       .  S
C349        C350   1.337   1_554  D
C349       H1087   1.088       .  S
C350        H352   1.089       .  S
H351       C1085   1.089       .  S
C353        C354   1.327       .  D
C353        H355   1.087       .  S
C354        H356   1.087       .  S
C357        C358   1.322       .  D
C357        H359   1.086       .  S
C358        H360   1.087       .  S
C361        C362   1.327       .  D
C361        H363   1.087       .  S
C362        H732   1.089       .  S
H364        C730   1.087       .  S
C365        C366   1.335       .  D
C365        H367   1.087       .  S
C366        H736   1.089       .  S
H368        C734   1.088       .  S
O369        C747   1.265   1_455  A
O370        V377   1.899       .  S
O370       C1116   1.265   1_455  A
O371        V377   1.931       .  S
O371        C381   1.272   1_455  A
O372        C382   1.269   1_455  A
O373       C1118   1.274       .  A
O374        V378   1.927       .  S
O374       C1117   1.270       .  A
O376        V378   1.905       .  S
O376        C379   1.264       .  A
V377       V1114   2.083   1_455  T
V378       V1113   2.084       .  T
C379        O737   1.265       .  A
C379        C435   1.468       .  S
C380       O1106   1.262       .  A
C380        C547   1.460       .  S
C381       O1110   1.271       .  A
C381        C396   1.510       .  S
C382       O1109   1.271       .  A
C382        C395   1.502       .  S
O383        V391   1.896       .  S
O383       C1129   1.263       .  A
O384        V391   1.895       .  S
O384       C1130   1.260       .  A
O385        V391   1.937       .  S
O385       C1131   1.272       .  A
O386        V391   1.931       .  S
O386       C1132   1.272       .  A
O387        V392   1.928       .  S
O387        C396   1.271   1_455  A
O388        V392   1.921       .  S
O388        C395   1.269   1_455  A
O389        V392   1.906       .  S
O389        C394   1.264   1_455  A
O390        V392   1.902       .  S
O390        C393   1.266   1_455  A
V391       V1128   2.085       .  T
V392       V1127   2.084   1_455  T
C393       O1119   1.265       .  A
C393        C562   1.475       .  S
C394       O1120   1.265       .  A
C394        C449   1.467       .  S
C395       O1121   1.271       .  A
C396       O1122   1.272       .  A
O398        V405   1.902       .  S
O398        C408   1.264       .  A
O399        V405   1.925       .  S
O399        C409   1.270       .  A
O400        C410   1.270       .  A
O401        C410   1.274       .  A
O402        V406   1.933       .  S
O402        C409   1.272       .  A
O404        V406   1.904       .  S
O404        C407   1.264       .  A
V405        V406   2.085       .  T
C407        C463   1.466       .  S
C408        C575   1.464       .  S
C409        C424   1.509       .  S
C410        C423   1.512       .  S
O411        V419   1.901       .  S
O411        C421   1.264       .  A
O412        V419   1.899       .  S
O412        C422   1.263       .  A
O413        V419   1.936       .  S
O413        C423   1.272       .  A
O414        V419   1.935       .  S
O414        C424   1.272       .  A
O415        V420   1.925       .  S
O415        C424   1.270       .  A
O416        V420   1.928       .  S
O416        C423   1.271       .  A
O417        V420   1.897       .  S
O417        C422   1.262       .  A
O418        V420   1.898       .  S
O418        C421   1.263       .  A
V419        V420   2.084       .  T
C421        C590   1.462       .  S
C422        C477   1.456       .  S
O425       V1169   1.905   1_655  S
O425        C803   1.263   1_565  A
O426        V433   1.901       .  S
O426        C436   1.265   1_565  A
O427        V433   1.931       .  S
O427        C437   1.272   1_565  A
O428       V1169   1.923       .  S
O428        C438   1.270   1_565  A
O429       V1170   1.934       .  S
O430        V434   1.925       .  S
O431       V1170   1.899       .  S
O431        C804   1.265       .  A
O432        V434   1.905       .  S
O432        C435   1.264       .  A
V433       O1161   1.903       .  S
V433       O1164   1.923       .  S
V434       O1165   1.923       .  S
V434       O1167   1.896       .  S
C435        O793   1.265       .  A
C436        O799   1.268       .  A
C436        C491   1.483       .  S
C437        C466   1.511       .  S
C438        C465   1.505       .  S
O439       V1183   1.896       .  S
O439       C1185   1.262       .  A
O440        V447   1.904       .  S
O440        C450   1.263       .  A
O441        V447   1.927       .  S
O441        C451   1.270       .  A
O442       V1183   1.935       .  S
O442        C452   1.272       .  A
O443       V1184   1.921       .  S
O443        C452   1.269       .  A
O444        V448   1.923       .  S
O444        C451   1.270       .  A
O445       V1184   1.898       .  S
O445       C1186   1.265       .  A
O446        V448   1.906       .  S
O446        C449   1.264   1_455  A
V447       O1175   1.905   1_455  S
V447       O1178   1.928   1_455  S
V447        V448   2.085       .  T
V448       O1179   1.923   1_455  S
V448       O1181   1.904       .  S
C449       O1175   1.264       .  A
C450       O1181   1.265       .  A
C450        C506   1.468       .  S
C451        C479   1.502       .  S
C452        C480   1.506       .  S
O453        V461   1.903       .  S
O454        V461   1.900       .  S
O454        C464   1.265   1_565  A
O455        V461   1.918       .  S
O455        C465   1.268   1_565  A
O456        V461   1.924       .  S
O456        C466   1.269   1_565  A
O457        V462   1.933       .  S
O458        V462   1.942       .  S
O459        V462   1.892       .  S
O460        V462   1.894       .  S
O460        C463   1.259       .  A
C464        C519   1.465       .  S
O467        V475   1.899       .  S
O467        C477   1.264       .  A
O468        V475   1.907       .  S
O468        C478   1.264       .  A
O469        V475   1.922       .  S
O469        C479   1.269       .  A
O470        V475   1.921       .  S
O470        C480   1.269       .  A
O471        V476   1.935       .  S
O471        C480   1.272       .  A
O472        V476   1.928       .  S
O472        C479   1.271       .  A
O473        V476   1.899       .  S
O473        C478   1.264       .  A
O474        V476   1.897       .  S
O474        C477   1.261       .  A
V475        V476   2.085       .  T
C478        C533   1.466       .  S
O481       V1225   1.891       .  S
O481       C1227   1.261   1_465  A
O482        V489   1.883       .  S
O483        V489   1.892       .  S
O483        C493   1.260       .  A
O484       V1225   1.894   1_545  S
O484        C494   1.267       .  A
O485       V1226   1.875   1_455  S
O486        V490   1.875       .  S
O487       V1226   1.903       .  S
O487       C1228   1.266       .  A
O488        V490   1.891       .  S
V489       O1217   1.897   1_565  S
V489       O1220   1.895   1_565  S
V490       O1221   1.879       .  S
V490       O1223   1.902       .  S
C491       O1217   1.263       .  A
C492       O1223   1.264       .  A
C492        C660   1.467       .  S
C493        C729   1.434       .  S
C494        C733   1.444       .  S
O495        V503   1.915       .  S
O495        C505   1.270       .  A
O496       V1239   1.907       .  S
O496       C1242   1.267       .  A
O497       V1239   1.861       .  S
O497        C507   1.248       .  A
O498        V503   1.849       .  S
O498        C508   1.255       .  A
O499        V504   1.880   1_455  S
O499        C508   1.255       .  A
O500       V1240   1.860       .  S
O500        C507   1.262       .  A
O501        V504   1.899       .  S
O501        C506   1.262   1_655  A
O502       V1240   1.882       .  S
O502       C1241   1.257       .  A
V503       O1232   1.910       .  S
V503       O1233   1.859       .  S
V503        V504   2.093   1_455  T
V504       O1236   1.861       .  S
V504       O1238   1.891   1_655  S
C505       O1238   1.260       .  A
C505        C674   1.469       .  S
C506       O1232   1.267       .  A
C507        C721   1.420       .  S
C508        C725   1.428       .  S
O509        V517   1.893   1_565  S
O509        C519   1.262   1_565  A
O510        V517   1.901       .  S
O511        V517   1.875       .  S
O511        C521   1.263       .  A
O512        V517   1.874   1_565  S
O512        C522   1.253       .  A
O513        V518   1.896       .  S
O514        V518   1.893       .  S
O515        V518   1.886       .  S
O515        C520   1.258       .  A
O516        V518   1.895       .  S
C520        C687   1.461       .  S
C521        C734   1.440       .  S
C522        C730   1.422       .  S
O523        V531   1.909       .  S
O523        C533   1.266       .  A
O524        V531   1.910       .  S
O524        C534   1.269       .  A
O525        V531   1.863       .  S
O525        C535   1.248       .  A
O526        V531   1.846       .  S
O526        C536   1.255       .  A
O527        V532   1.876       .  S
O527        C536   1.255       .  A
O528        V532   1.862       .  S
O528        C535   1.262       .  A
O529        V532   1.889       .  S
O529        C534   1.258       .  A
O530        V532   1.895       .  S
O530        C533   1.263       .  A
V531        V532   2.092       .  T
C534        C702   1.462       .  S
C535        C726   1.425       .  S
C536        C722   1.422       .  S
O537        C915   1.264       .  A
O538        V545   1.882       .  S
O538        C548   1.258   1_455  A
O539        V545   1.890   1_554  S
O539        C549   1.261       .  A
O540        C550   1.267       .  A
O541       C1286   1.257       .  A
O542        V546   1.880       .  S
O542       C1285   1.264       .  A
O543        C916   1.266       .  A
O544        V546   1.879       .  S
O544        C547   1.258       .  A
V545       V1282   2.090   1_456  T
V546       V1281   2.090   1_554  T
C547        O905   1.268       .  A
C548        O911   1.268       .  A
C548        C603   1.461       .  S
C549       O1278   1.253   1_455  A
C549        C717   1.429       .  S
C550       O1277   1.241       .  A
C550        C714   1.447       .  S
O551        V559   1.885       .  S
O551       C1297   1.258       .  A
O552        V559   1.896   1_554  S
O552       C1298   1.263       .  A
O553        V559   1.894   1_554  S
O553       C1299   1.261       .  A
O554        V559   1.890       .  S
O554       C1300   1.267       .  A
O555        V560   1.875   1_456  S
O555        C564   1.254       .  A
O556        V560   1.880       .  S
O556        C563   1.262       .  A
O557        V560   1.892       .  S
O557        C562   1.262       .  A
O558        V560   1.906   1_556  S
O558        C561   1.267       .  A
V559       V1296   2.088   1_556  T
V560       V1295   2.085   1_554  T
C561       O1287   1.266       .  A
C561        C618   1.478       .  S
C562       O1288   1.270       .  A
C563       O1289   1.241       .  A
C563        C713   1.440       .  S
C564       O1290   1.259   1_455  A
C564        C718   1.422       .  S
O566        V573   1.893   1_556  S
O566        C576   1.260       .  A
O567        V573   1.854   1_556  S
O567        C577   1.262       .  A
O568        C578   1.252       .  A
O569        C578   1.256       .  A
O570        V574   1.866   1_556  S
O570        C577   1.248       .  A
O572        V574   1.899       .  S
O572        C575   1.264       .  A
V573        V574   2.091       .  T
C576        C631   1.464       .  S
C577        C709   1.426       .  S
C578        C706   1.409       .  S
O579        V587   1.899   1_556  S
O579        C589   1.262       .  A
O580        V587   1.902       .  S
O580        C590   1.264       .  A
O581        V587   1.861   1_556  S
O581        C591   1.262       .  A
O582        V587   1.880       .  S
O582        C592   1.256       .  A
O583        V588   1.849       .  S
O583        C592   1.255       .  A
O584        V588   1.856   1_556  S
O584        C591   1.247       .  A
O585        V588   1.897       .  S
O585        C590   1.264       .  A
O586        V588   1.901   1_556  S
O586        C589   1.267       .  A
V587        V588   2.092       .  T
C589        C646   1.465       .  S
C591        C705   1.412       .  S
C592        C710   1.430       .  S
O594        V601   1.903       .  S
O594        C604   1.264   1_455  A
O595        V601   1.926       .  S
O595        C605   1.269   1_455  A
O596        C606   1.268   1_455  A
O597       C1342   1.274       .  A
O598        V602   1.928       .  S
O598       C1341   1.271       .  A
O599        C972   1.257       .  A
O600        V602   1.891       .  S
O600       C1339   1.263       .  A
V601       V1338   2.085   1_455  T
V602       V1337   2.083       .  T
C603       O1336   1.262       .  A
C604        O967   1.261       .  A
C604       C1395   1.459       .  S
C605       O1334   1.272       .  A
C605        C620   1.504       .  S
C606       O1333   1.272       .  A
C606        C619   1.501       .  S
O607        V615   1.904       .  S
O607       C1353   1.266       .  A
O608        V615   1.901       .  S
O608       C1354   1.264       .  A
O609        V615   1.923       .  S
O609       C1355   1.268       .  A
O610        V615   1.923       .  S
O610       C1356   1.269       .  A
O611        V616   1.935       .  S
O611        C620   1.274   1_455  A
O612        V616   1.930       .  S
O612        C619   1.272   1_455  A
O613        V616   1.899       .  S
O613        C618   1.263   1_455  A
O614        V616   1.899       .  S
O614        C617   1.260       .  A
V615       V1352   2.085       .  T
V616       V1351   2.084   1_455  T
C617       O1343   1.270   1_455  A
C617        C673   1.470       .  S
C618       O1344   1.268       .  A
C619       O1345   1.267       .  A
C620       O1346   1.267       .  A
O622        V629   1.903       .  S
O622        C632   1.265       .  A
O623        V629   1.922       .  S
O623        C633   1.268       .  A
O624        C634   1.268       .  A
O625        C634   1.274       .  A
O626        V630   1.925       .  S
O626        C633   1.271       .  A
O628        V630   1.897       .  S
O628        C631   1.262       .  A
V629        V630   2.086       .  T
C632        C688   1.455       .  S
C633        C648   1.500       .  S
C634        C647   1.509       .  S
O635        V643   1.906       .  S
O635        C645   1.267       .  A
O636        V643   1.910       .  S
O636        C646   1.265       .  A
O637        V643   1.924       .  S
O637        C647   1.268       .  A
O638        V643   1.920       .  S
O638        C648   1.268       .  A
O639        V644   1.928       .  S
O639        C648   1.271       .  A
O640        V644   1.934       .  S
O640        C647   1.274       .  A
O641        V644   1.893       .  S
O641        C646   1.262       .  A
O642        V644   1.893       .  S
O642        C645   1.259       .  A
V643        V644   2.085       .  T
C645        C701   1.458       .  S
O649        V657   1.904       .  S
O650       V1393   1.901       .  S
O650       C1028   1.264   1_565  A
O651       V1393   1.928   1_455  S
O651        C661   1.270   1_565  A
O652        V657   1.931       .  S
O652        C662   1.271   1_565  A
O653        V658   1.929       .  S
O654       V1394   1.926   1_455  S
O655        V658   1.904       .  S
O655        C660   1.265       .  A
O656       V1394   1.902       .  S
O656       C1395   1.262       .  A
V657       O1386   1.897       .  S
V657       O1387   1.923       .  S
V658       O1390   1.927       .  S
V658       O1392   1.904       .  S
C659       O1392   1.263       .  A
C659       C1340   1.465       .  S
C660       O1018   1.263       .  A
C661        C689   1.510       .  S
C662        C690   1.505       .  S
O663        V671   1.903       .  S
O663        C673   1.263       .  A
O664       V1407   1.894       .  S
O664       C1410   1.261       .  A
O665       V1407   1.931       .  S
O665        C675   1.273       .  A
O666        V671   1.925       .  S
O666        C676   1.272       .  A
O667        V672   1.926       .  S
O667        C676   1.269       .  A
O668       V1408   1.926       .  S
O668        C675   1.269       .  A
O669        V672   1.907       .  S
O669        C674   1.266       .  A
O670       V1408   1.901       .  S
O670       C1409   1.264       .  A
V671       O1400   1.903       .  S
V671       O1401   1.931   1_455  S
V671        V672   2.084       .  T
V672       O1404   1.917   1_455  S
V672       O1406   1.909       .  S
C673       O1406   1.266       .  A
C674       O1400   1.263       .  A
C675        C704   1.506       .  S
C676        C703   1.504       .  S
O677        V685   1.897       .  S
O678        V685   1.898       .  S
O679        V685   1.935       .  S
O679        C689   1.273   1_565  A
O680        V685   1.936       .  S
O680        C690   1.273   1_565  A
O681        V686   1.922       .  S
O682        V686   1.921       .  S
O683        V686   1.905       .  S
O683        C688   1.265       .  A
O684        V686   1.903       .  S
O684        C687   1.265       .  A
O691        V699   1.908       .  S
O691        C701   1.267       .  A
O692        V699   1.909       .  S
O692        C702   1.267       .  A
O693        V699   1.915       .  S
O693        C703   1.266       .  A
O694        V699   1.918       .  S
O694        C704   1.267       .  A
O695        V700   1.936       .  S
O695        C704   1.274       .  A
O696        V700   1.939       .  S
O696        C703   1.275       .  A
O697        V700   1.890       .  S
O697        C702   1.260       .  A
O698        V700   1.889       .  S
O698        C701   1.258       .  A
V699        V700   2.085       .  T
C705        C706   1.325   1_556  D
C705        H707   1.090       .  S
C706        H708   1.090       .  S
C709        C710   1.330   1_556  D
C709        H711   1.088       .  S
C710        H712   1.090       .  S
C713        C714   1.332   1_554  D
C713        H715   1.087       .  S
C714       H1452   1.089       .  S
H716       C1450   1.088       .  S
C717        C718   1.335   1_554  D
C717       H1455   1.090       .  S
C718        H720   1.089       .  S
H719       C1453   1.088       .  S
C721        C722   1.328       .  D
C721        H723   1.089       .  S
C722        H724   1.090       .  S
C725        C726   1.329       .  D
C725        H727   1.090       .  S
C726        H728   1.089       .  S
C729        C730   1.333       .  D
C729        H731   1.089       .  S
C733        C734   1.326       .  D
C733        H735   1.089       .  S
O737       V1113   1.906       .  S
O738        V745   1.912       .  S
O739        V745   1.917   1_545  S
O739        C749   1.266       .  A
O740       V1113   1.932       .  S
O740        C750   1.272       .  A
O741       V1114   1.928       .  S
O742        V746   1.918   1_545  S
O743       V1114   1.914       .  S
O743       C1116   1.265       .  A
O744        V746   1.909       .  S
O744        C747   1.266       .  A
V745       O1105   1.916       .  S
V745       O1108   1.917       .  S
V746       O1109   1.929       .  S
V746       O1111   1.916       .  S
C747        C803   1.475   1_565  S
C748       O1111   1.266       .  A
C748        C915   1.481       .  S
C749        C764   1.498       .  S
C750        C763   1.506       .  S
O751        V759   1.903       .  S
O752        V759   1.895       .  S
O753        V759   1.924       .  S
O754        V759   1.914       .  S
O755        V760   1.930       .  S
O755        C764   1.273       .  A
O756        V760   1.933       .  S
O756        C763   1.272       .  A
O757        V760   1.890       .  S
O757        C762   1.261       .  A
O758        V760   1.906       .  S
O758        C761   1.262       .  A
C761        C930   1.470       .  S
C762        C817   1.451       .  S
O765       V1141   1.905       .  S
O765       C1143   1.265       .  A
O766        V773   1.905       .  S
O766        C776   1.266       .  A
O767        V773   1.923   1_545  S
O767        C777   1.269       .  A
O768       V1141   1.918       .  S
O768        C778   1.268       .  A
O769       V1142   1.926       .  S
O769        C778   1.271       .  A
O770        V774   1.927   1_545  S
O770        C777   1.271       .  A
O771       V1142   1.897       .  S
O771       C1144   1.262       .  A
O772        V774   1.899       .  S
O772        C775   1.262       .  A
V773       O1133   1.908       .  S
V773       O1136   1.921       .  S
V773        V774   2.085       .  T
V774       O1137   1.933       .  S
V774       O1139   1.896       .  S
C775       O1133   1.265       .  A
C775        C831   1.465       .  S
C776       O1139   1.261       .  A
C776        C943   1.462       .  S
C777        C792   1.501       .  S
C778        C791   1.497       .  S
O779        V787   1.896       .  S
O779        C789   1.263       .  A
O780        V787   1.895       .  S
O780        C790   1.262       .  A
O781        V787   1.921       .  S
O781        C791   1.268       .  A
O782        V787   1.921       .  S
O782        C792   1.268       .  A
O783        V788   1.929       .  S
O783        C792   1.272       .  A
O784        V788   1.923       .  S
O784        C791   1.271       .  A
O785        V788   1.884       .  S
O785        C790   1.259       .  A
O786        V788   1.885       .  S
O786        C789   1.259       .  A
V787        V788   2.086       .  T
C789        C958   1.448       .  S
C790        C845   1.444       .  S
O794        V801   1.911       .  S
O794        C804   1.264       .  A
O795        V801   1.925   1_655  S
O795        C805   1.269       .  A
O796        C806   1.270       .  A
O797       C1174   1.270       .  A
O798        V802   1.919       .  S
O798       C1173   1.270       .  A
O800        V802   1.915   1_455  S
O800        C803   1.268   1_455  A
V801       V1170   2.084       .  T
V802       V1169   2.083   1_645  T
C804        C859   1.470   1_455  S
C805       O1166   1.269       .  A
C805        C834   1.496       .  S
C806       O1165   1.270       .  A
C806        C833   1.501       .  S
O808        V815   1.889       .  S
O808        C818   1.261       .  A
O809        V815   1.926       .  S
O809        C819   1.271       .  A
O810        C820   1.272       .  A
O811        C820   1.270       .  A
O812        V816   1.927       .  S
O812        C819   1.270       .  A
O814        V816   1.893       .  S
O814        C817   1.261       .  A
V815        V816   2.086       .  T
C818        C874   1.442       .  S
C819        C847   1.504       .  S
C820        C848   1.504       .  S
O821        V829   1.905       .  S
O821       C1199   1.265       .  A
O822        V829   1.914       .  S
O822        C832   1.265       .  A
O823        V829   1.928       .  S
O823        C833   1.271       .  A
O824        V829   1.929       .  S
O824        C834   1.271       .  A
O825        V830   1.912       .  S
O825       C1202   1.266       .  A
O826        V830   1.916       .  S
O826       C1201   1.267       .  A
O827        V830   1.912       .  S
O827       C1200   1.265       .  A
O828        V830   1.910       .  S
O828        C831   1.267   1_545  A
V829       V1198   2.085       .  T
V830       V1197   2.086   1_545  T
C831       O1189   1.260       .  A
C832       O1195   1.266       .  A
C832        C887   1.474       .  S
C833       O1194   1.269       .  A
C834       O1193   1.267       .  A
O835        V843   1.885       .  S
O835        C845   1.258       .  A
O836        V843   1.890       .  S
O836        C846   1.260       .  A
O837        V843   1.933       .  S
O837        C847   1.273       .  A
O838        V843   1.937       .  S
O838        C848   1.274       .  A
O839        V844   1.917       .  S
O839        C848   1.267       .  A
O840        V844   1.919       .  S
O840        C847   1.268       .  A
O841        V844   1.901       .  S
O841        C846   1.265       .  A
O842        V844   1.897       .  S
O842        C845   1.263       .  A
V843        V844   2.085       .  T
C846        C901   1.456       .  S
O850        V857   1.904       .  S
O850       C1228   1.264   1_455  A
O851        V857   1.874   1_655  S
O851        C861   1.243       .  A
O852        C862   1.258       .  A
O853       C1230   1.240       .  A
O854        V858   1.851       .  S
O854       C1229   1.253   1_545  A
O856        V858   1.922       .  S
O856       C1227   1.269       .  A
V857       V1226   2.084   1_455  T
V858       V1225   2.089   1_645  T
C859       O1224   1.262       .  A
C860       O1218   1.257   1_545  A
C860       C1028   1.461       .  S
C861       O1222   1.263       .  A
C861       C1097   1.441       .  S
C862       O1221   1.255       .  A
C862       C1101   1.429       .  S
O863        V871   1.912       .  S
O863        C873   1.267       .  A
O865        C875   1.265       .  A
O866        V871   1.882       .  S
O866        C876   1.251       .  A
O867        V872   1.881       .  S
O867        C876   1.264       .  A
O868        C875   1.250       .  A
O869        V872   1.888       .  S
O869        C874   1.262       .  A
V871        V872   2.070       .  T
C873       C1042   1.484       .  S
C875       C1089   1.457       .  S
C876       C1093   1.456       .  S
O877        V885   1.918       .  S
O877        C887   1.268       .  A
O878        V885   1.908       .  S
O878       C1256   1.267       .  A
O879        V885   1.849       .  S
O879        C889   1.254       .  A
O880        V885   1.854       .  S
O880        C890   1.240       .  A
O881        V886   1.858       .  S
O881       C1258   1.260   1_545  A
O882        V886   1.875       .  S
O882       C1257   1.246       .  A
O883        V886   1.899       .  S
O883        C888   1.264       .  A
O884        V886   1.911       .  S
O884       C1255   1.265       .  A
V885       V1254   2.089       .  T
V886       V1253   2.091       .  T
C887       O1252   1.262       .  A
C888       O1246   1.265       .  A
C888       C1055   1.465       .  S
C889       O1250   1.261       .  A
C889       C1102   1.440       .  S
C890       O1249   1.267       .  A
C890       C1098   1.446       .  S
O891        V899   1.897       .  S
O891        C901   1.264       .  A
O892        V899   1.891       .  S
O892        C902   1.262       .  A
O893        V899   1.886       .  S
O893        C903   1.263       .  A
O894        V899   1.889       .  S
O894        C904   1.251       .  A
O895        V900   1.878       .  S
O895        C904   1.262       .  A
O896        V900   1.873       .  S
O896        C903   1.249       .  A
O897        V900   1.895       .  S
O897        C902   1.262       .  A
O898        V900   1.894       .  S
O898        C901   1.262       .  A
V899        V900   2.082       .  T
C902       C1070   1.451       .  S
C903       C1094   1.455       .  S
C904       C1090   1.452       .  S
O905       V1281   1.916   1_554  S
O906        V913   1.918   1_556  S
O906        C916   1.267   1_565  A
O907        V913   1.860   1_545  S
O907        C917   1.241       .  A
O908       V1281   1.856       .  S
O908        C918   1.256       .  A
O909       V1282   1.853   1_556  S
O910        V914   1.847   1_554  S
O911       V1282   1.912   1_556  S
O912        V914   1.919   1_554  S
O912        C915   1.269   1_545  A
V913       O1273   1.912       .  S
V913       O1276   1.860   1_554  S
V914       O1277   1.857   1_545  S
V914       O1279   1.911       .  S
C916        C971   1.479       .  S
C917       C1085   1.442       .  S
C918       C1082   1.425       .  S
O919        V927   1.909       .  S
O920        V927   1.910   1_554  S
O921        V927   1.862   1_554  S
O922        V927   1.862       .  S
O923        V928   1.867       .  S
O923        C932   1.240       .  A
O924        V928   1.847   1_554  S
O924        C931   1.255       .  A
O925        V928   1.911   1_554  S
O925        C930   1.266       .  A
O926        V928   1.909       .  S
O926        C929   1.266       .  A
C929        C986   1.457       .  S
C931       C1081   1.419       .  S
C932       C1086   1.443       .  S
O933       V1309   1.900       .  S
O933       C1311   1.264       .  A
O934        V941   1.910       .  S
O934        C944   1.264   1_565  A
O935        V941   1.876   1_544  S
O935        C945   1.248       .  A
O936       V1309   1.883   1_556  S
O936        C946   1.262       .  A
O937       V1310   1.878   1_556  S
O937        C946   1.246       .  A
O938        V942   1.883       .  S
O938        C945   1.262       .  A
O939       V1310   1.900   1_556  S
O939       C1312   1.264       .  A
O940        V942   1.896       .  S
O940        C943   1.262   1_545  A
V941       O1301   1.903   1_556  S
V941       O1304   1.888       .  S
V941        V942   2.084   1_566  T
V942       O1305   1.880   1_544  S
V942       O1307   1.896   1_554  S
C943       O1301   1.264       .  A
C944       O1307   1.263       .  A
C944        C999   1.467       .  S
C945       C1077   1.447       .  S
C946       C1074   1.445       .  S
O947        V955   1.892       .  S
O947        C957   1.261       .  A
O948        V955   1.891   1_554  S
O948        C958   1.261       .  A
O949        V955   1.882   1_554  S
O949        C959   1.245       .  A
O950        V955   1.886       .  S
O950        C960   1.263       .  A
O951        V956   1.879   1_556  S
O951        C960   1.249       .  A
O952        V956   1.881       .  S
O952        C959   1.263       .  A
O953        V956   1.889       .  S
O953        C958   1.262       .  A
O954        V956   1.898   1_556  S
O954        C957   1.263       .  A
V955        V956   2.086   1_556  T
C957       C1014   1.455       .  S
C959       C1073   1.449       .  S
C960       C1078   1.447       .  S
O961       V1337   1.917       .  S
O961       C1339   1.266       .  A
O962        V969   1.914       .  S
O962        C972   1.269       .  A
O963        V969   1.918       .  S
O963        C973   1.267       .  A
O964       V1337   1.927       .  S
O964        C974   1.270       .  A
O965       V1338   1.937       .  S
O966        V970   1.923       .  S
O967       V1338   1.895       .  S
O968        V970   1.895       .  S
V969       O1329   1.927       .  S
V969       O1332   1.911   1_545  S
V970       O1333   1.928   1_545  S
V970       O1335   1.890       .  S
C971       O1329   1.270       .  A
C973        C988   1.501       .  S
C974        C987   1.508       .  S
O975        V983   1.908       .  S
O976        V983   1.906       .  S
O977        V983   1.935       .  S
O978        V983   1.919       .  S
O979        V984   1.932       .  S
O979        C988   1.273       .  A
O980        V984   1.934       .  S
O980        C987   1.273       .  A
O981        V984   1.896       .  S
O981        C986   1.260       .  A
O982        V984   1.901       .  S
O982        C985   1.263       .  A
C985       C1041   1.471       .  S
O989       V1365   1.912       .  S
O989       C1367   1.266       .  A
O990        V997   1.913       .  S
O990       C1000   1.268       .  A
O991        V997   1.921       .  S
O991       C1001   1.269       .  A
O992       V1365   1.917       .  S
O992       C1002   1.268       .  A
O993       V1366   1.932       .  S
O993       C1002   1.272       .  A
O994        V998   1.935       .  S
O994       C1001   1.273       .  A
O995       V1366   1.889       .  S
O995       C1368   1.259       .  A
O996        V998   1.889       .  S
O996        C999   1.261       .  A
V997       O1357   1.916       .  S
V997       O1360   1.920   1_545  S
V997        V998   2.084       .  T
V998       O1361   1.936   1_545  S
V998       O1363   1.890       .  S
C999       O1357   1.267       .  A
C1000      O1363   1.258       .  A
C1000      C1056   1.462       .  S
C1001      C1016   1.506       .  S
C1002      C1015   1.501       .  S
O1003      V1011   1.905       .  S
O1003      C1013   1.264       .  A
O1004      V1011   1.895       .  S
O1004      C1014   1.263       .  A
O1005      V1011   1.929       .  S
O1005      C1015   1.271       .  A
O1006      V1011   1.931       .  S
O1006      C1016   1.271       .  A
O1007      V1012   1.925       .  S
O1007      C1016   1.271       .  A
O1008      V1012   1.920       .  S
O1008      C1015   1.270       .  A
O1009      V1012   1.894       .  S
O1009      C1014   1.262       .  A
O1010      V1012   1.899       .  S
O1010      C1013   1.262       .  A
V1011      V1012   2.084       .  T
C1013      C1069   1.461       .  S
O1017      V1025   1.900       .  S
O1017      C1395   1.264       .  A
O1019      C1029   1.269       .  A
O1020      V1025   1.926       .  S
O1020      C1030   1.271       .  A
O1021      V1026   1.925       .  S
O1021      C1398   1.270       .  A
O1022      C1397   1.270       .  A
O1023      V1026   1.899       .  S
O1023      C1028   1.263       .  A
V1025      V1394   2.085       .  T
V1026      V1393   2.085   1_545  T
C1027      O1385   1.263   1_545  A
C1029      O1390   1.270       .  A
C1029      C1057   1.497       .  S
C1030      O1389   1.269       .  A
C1030      C1058   1.500       .  S
O1031      V1039   1.905       .  S
O1031      C1041   1.263       .  A
O1033      C1043   1.273       .  A
O1034      V1039   1.929       .  S
O1034      C1044   1.271       .  A
O1035      V1040   1.923       .  S
O1035      C1044   1.269       .  A
O1036      C1043   1.267       .  A
O1037      V1040   1.919       .  S
O1037      C1042   1.268       .  A
V1039      V1040   2.084       .  T
C1043      C1072   1.502       .  S
C1044      C1071   1.504       .  S
O1045      V1053   1.902       .  S
O1045      C1423   1.264       .  A
O1046      V1053   1.900       .  S
O1046      C1424   1.264       .  A
O1047      V1053   1.912       .  S
O1047      C1057   1.267       .  A
O1048      V1053   1.921       .  S
O1048      C1058   1.268       .  A
O1049      V1054   1.926       .  S
O1049      C1426   1.270       .  A
O1050      V1054   1.934       .  S
O1050      C1425   1.273       .  A
O1051      V1054   1.898       .  S
O1051      C1056   1.263       .  A
O1052      V1054   1.898       .  S
O1052      C1055   1.262       .  A
V1053      V1422   2.086       .  T
V1054      V1421   2.085   1_545  T
C1055      O1413   1.266   1_545  A
C1056      O1414   1.264   1_545  A
C1057      O1418   1.271       .  A
C1058      O1417   1.271       .  A
O1059      V1067   1.908       .  S
O1059      C1069   1.265       .  A
O1060      V1067   1.898       .  S
O1060      C1070   1.264       .  A
O1061      V1067   1.929       .  S
O1061      C1071   1.271       .  A
O1062      V1067   1.928       .  S
O1062      C1072   1.270       .  A
O1063      V1068   1.923       .  S
O1063      C1072   1.271       .  A
O1064      V1068   1.923       .  S
O1064      C1071   1.270       .  A
O1065      V1068   1.886       .  S
O1065      C1070   1.260       .  A
O1066      V1068   1.895       .  S
O1066      C1069   1.261       .  A
V1067      V1068   2.085       .  T
C1073      C1074   1.329   1_554  D
C1073      H1075   1.088       .  S
C1074      H1076   1.088       .  S
C1077      C1078   1.332   1_554  D
C1077      H1079   1.089       .  S
C1078      H1080   1.089       .  S
C1081      C1082   1.332   1_554  D
C1081      H1083   1.089       .  S
C1085      C1086   1.333   1_554  D
C1086      H1088   1.089       .  S
C1089      C1090   1.326       .  D
C1089      H1091   1.087       .  S
C1090      H1092   1.087       .  S
C1093      C1094   1.322       .  D
C1093      H1095   1.087       .  S
C1094      H1096   1.088       .  S
C1097      C1098   1.328       .  D
C1097      H1099   1.089       .  S
C1098      H1468   1.089       .  S
H1100      C1466   1.087       .  S
C1101      C1102   1.335       .  D
C1101      H1103   1.087       .  S
C1102      H1472   1.088       .  S
H1104      C1470   1.088       .  S
O1106      V1113   1.904       .  S
O1107      V1113   1.935       .  S
O1107      C1117   1.273       .  A
O1108      C1118   1.268       .  A
O1110      V1114   1.930       .  S
O1112      V1114   1.912       .  S
O1112      C1115   1.267       .  A
C1115      C1171   1.475   1_655  S
C1116      C1283   1.474       .  S
C1117      C1132   1.510       .  S
C1118      C1131   1.508       .  S
O1119      V1127   1.914       .  S
O1120      V1127   1.905       .  S
O1121      V1127   1.930       .  S
O1122      V1127   1.932       .  S
O1123      V1128   1.930       .  S
O1123      C1132   1.271       .  A
O1124      V1128   1.921       .  S
O1124      C1131   1.270       .  A
O1125      V1128   1.903       .  S
O1125      C1130   1.265       .  A
O1126      V1128   1.913       .  S
O1126      C1129   1.266       .  A
C1129      C1298   1.470       .  S
C1130      C1185   1.457       .  S
O1134      V1141   1.900       .  S
O1134      C1144   1.264       .  A
O1135      V1141   1.930       .  S
O1135      C1145   1.271       .  A
O1136      C1146   1.268       .  A
O1137      C1146   1.273       .  A
O1138      V1142   1.927       .  S
O1138      C1145   1.271       .  A
O1140      V1142   1.902       .  S
O1140      C1143   1.263       .  A
V1141      V1142   2.085       .  T
C1143      C1199   1.465       .  S
C1144      C1311   1.459       .  S
C1145      C1160   1.508       .  S
C1146      C1159   1.505       .  S
O1147      V1155   1.905       .  S
O1147      C1157   1.265       .  A
O1148      V1155   1.899       .  S
O1148      C1158   1.263       .  A
O1149      V1155   1.927       .  S
O1149      C1159   1.270       .  A
O1150      V1155   1.924       .  S
O1150      C1160   1.269       .  A
O1151      V1156   1.934       .  S
O1151      C1160   1.273       .  A
O1152      V1156   1.927       .  S
O1152      C1159   1.271       .  A
O1153      V1156   1.890       .  S
O1153      C1158   1.260       .  A
O1154      V1156   1.893       .  S
O1154      C1157   1.261       .  A
V1155      V1156   2.086       .  T
C1157      C1326   1.460       .  S
C1158      C1213   1.452       .  S
O1162      V1169   1.897       .  S
O1162      C1172   1.265   1_565  A
O1163      V1169   1.928   1_655  S
O1163      C1173   1.270   1_565  A
O1164      C1174   1.269   1_565  A
O1166      V1170   1.918   1_655  S
O1168      V1170   1.910       .  S
O1168      C1171   1.265       .  A
C1172      C1227   1.474   1_455  S
C1173      C1202   1.499       .  S
C1174      C1201   1.498       .  S
O1176      V1183   1.898       .  S
O1176      C1186   1.261       .  A
O1177      V1183   1.923       .  S
O1177      C1187   1.271       .  A
O1178      C1188   1.272       .  A
O1179      C1188   1.268       .  A
O1180      V1184   1.925       .  S
O1180      C1187   1.268       .  A
O1182      V1184   1.901       .  S
O1182      C1185   1.263       .  A
V1183      V1184   2.085       .  T
C1186      C1242   1.459       .  S
C1187      C1215   1.500       .  S
C1188      C1216   1.502       .  S
O1189      V1197   1.897       .  S
O1190      V1197   1.887       .  S
O1190      C1200   1.261   1_565  A
O1191      V1197   1.929       .  S
O1191      C1201   1.272   1_565  A
O1192      V1197   1.934       .  S
O1192      C1202   1.273   1_565  A
O1193      V1198   1.913       .  S
O1194      V1198   1.921       .  S
O1195      V1198   1.901       .  S
O1196      V1198   1.903       .  S
O1196      C1199   1.263       .  A
C1200      C1255   1.462       .  S
O1203      V1211   1.889       .  S
O1203      C1213   1.259       .  A
O1204      V1211   1.889       .  S
O1204      C1214   1.259       .  A
O1205      V1211   1.936       .  S
O1205      C1215   1.274       .  A
O1206      V1211   1.933       .  S
O1206      C1216   1.273       .  A
O1207      V1212   1.917       .  S
O1207      C1216   1.267       .  A
O1208      V1212   1.912       .  S
O1208      C1215   1.266       .  A
O1209      V1212   1.899       .  S
O1209      C1214   1.265       .  A
O1210      V1212   1.902       .  S
O1210      C1213   1.265       .  A
V1211      V1212   2.086       .  T
C1214      C1269   1.454       .  S
O1218      V1225   1.882   1_655  S
O1219      V1225   1.896   1_655  S
O1219      C1229   1.262       .  A
O1220      C1230   1.267       .  A
O1222      V1226   1.879       .  S
O1224      V1226   1.892       .  S
C1228      C1396   1.467       .  S
C1229      C1465   1.439       .  S
C1230      C1469   1.449       .  S
O1231      V1239   1.909       .  S
O1231      C1241   1.268       .  A
O1233      C1243   1.247   1_455  A
O1234      V1239   1.849       .  S
O1234      C1244   1.256       .  A
O1235      V1240   1.873       .  S
O1235      C1244   1.255       .  A
O1236      C1243   1.263       .  A
O1237      V1240   1.888       .  S
O1237      C1242   1.260       .  A
V1239      V1240   2.093       .  T
C1241      C1410   1.457       .  S
C1243      C1457   1.422       .  S
C1244      C1461   1.420       .  S
O1245      V1253   1.888       .  S
O1245      C1255   1.262       .  A
O1246      V1253   1.905       .  S
O1247      V1253   1.870       .  S
O1247      C1257   1.262       .  A
O1248      V1253   1.875   1_565  S
O1248      C1258   1.253       .  A
O1249      V1254   1.892       .  S
O1250      V1254   1.896       .  S
O1251      V1254   1.883       .  S
O1251      C1256   1.258       .  A
O1252      V1254   1.895       .  S
C1256      C1423   1.457       .  S
C1257      C1470   1.443       .  S
C1258      C1466   1.428       .  S
O1259      V1267   1.901       .  S
O1259      C1269   1.266       .  A
O1260      V1267   1.908       .  S
O1260      C1270   1.268       .  A
O1261      V1267   1.859       .  S
O1261      C1271   1.248       .  A
O1262      V1267   1.853       .  S
O1262      C1272   1.256       .  A
O1263      V1268   1.874       .  S
O1263      C1272   1.255       .  A
O1264      V1268   1.859       .  S
O1264      C1271   1.262       .  A
O1265      V1268   1.884       .  S
O1265      C1270   1.258       .  A
O1266      V1268   1.889       .  S
O1266      C1269   1.260       .  A
V1267      V1268   2.094       .  T
C1270      C1438   1.460       .  S
C1271      C1462   1.416       .  S
C1272      C1458   1.428       .  S
O1274      V1281   1.920       .  S
O1274      C1284   1.268       .  A
O1275      V1281   1.867   1_554  S
O1275      C1285   1.241       .  A
O1276      C1286   1.258       .  A
O1278      V1282   1.851       .  S
O1280      V1282   1.920       .  S
O1280      C1283   1.268       .  A
C1284      C1339   1.469       .  S
C1285      C1453   1.436       .  S
C1286      C1450   1.437       .  S
O1287      V1295   1.914       .  S
O1288      V1295   1.925   1_554  S
O1289      V1295   1.872   1_554  S
O1290      V1295   1.854       .  S
O1291      V1296   1.847   1_556  S
O1291      C1300   1.240       .  A
O1292      V1296   1.848       .  S
O1292      C1299   1.253       .  A
O1293      V1296   1.913       .  S
O1293      C1298   1.267       .  A
O1294      V1296   1.905   1_556  S
O1294      C1297   1.267       .  A
C1297      C1354   1.456       .  S
C1299      C1449   1.434       .  S
C1300      C1454   1.439       .  S
O1302      V1309   1.906   1_556  S
O1302      C1312   1.264       .  A
O1303      V1309   1.875       .  S
O1303      C1313   1.246       .  A
O1304      C1314   1.262       .  A
O1305      C1314   1.246       .  A
O1306      V1310   1.880       .  S
O1306      C1313   1.262       .  A
O1308      V1310   1.893       .  S
O1308      C1311   1.262       .  A
V1309      V1310   2.085       .  T
C1312      C1367   1.466       .  S
C1313      C1445   1.448       .  S
C1314      C1442   1.451       .  S
O1315      V1323   1.905       .  S
O1315      C1325   1.264       .  A
O1316      V1323   1.907   1_554  S
O1316      C1326   1.266       .  A
O1317      V1323   1.876   1_554  S
O1317      C1327   1.250       .  A
O1318      V1323   1.888       .  S
O1318      C1328   1.263       .  A
O1319      V1324   1.879       .  S
O1319      C1328   1.245   1_554  A
O1320      V1324   1.876       .  S
O1320      C1327   1.262       .  A
O1321      V1324   1.890       .  S
O1321      C1326   1.262       .  A
O1322      V1324   1.900   1_556  S
O1322      C1325   1.265       .  A
V1323      V1324   2.079   1_556  T
C1325      C1382   1.465       .  S
C1327      C1441   1.452       .  S
C1328      C1446   1.447       .  S
O1330      V1337   1.910       .  S
O1330      C1340   1.268       .  A
O1331      V1337   1.929       .  S
O1331      C1341   1.270       .  A
O1332      C1342   1.265       .  A
O1334      V1338   1.928       .  S
O1336      V1338   1.901       .  S
C1341      C1356   1.507       .  S
C1342      C1355   1.498       .  S
O1343      V1351   1.916       .  S
O1344      V1351   1.922       .  S
O1345      V1351   1.920       .  S
O1346      V1351   1.917       .  S
O1347      V1352   1.934       .  S
O1347      C1356   1.273       .  A
O1348      V1352   1.923       .  S
O1348      C1355   1.271       .  A
O1349      V1352   1.892       .  S
O1349      C1354   1.261       .  A
O1350      V1352   1.890       .  S
O1350      C1353   1.259       .  A
C1353      C1409   1.454       .  S
O1358      V1365   1.907       .  S
O1358      C1368   1.266       .  A
O1359      V1365   1.927       .  S
O1359      C1369   1.268       .  A
O1360      C1370   1.267       .  A
O1361      C1370   1.275       .  A
O1362      V1366   1.923       .  S
O1362      C1369   1.272       .  A
O1364      V1366   1.892       .  S
O1364      C1367   1.262       .  A
V1365      V1366   2.085       .  T
C1368      C1424   1.456       .  S
C1369      C1384   1.501       .  S
C1370      C1383   1.506       .  S
O1371      V1379   1.912       .  S
O1371      C1381   1.268       .  A
O1372      V1379   1.912       .  S
O1372      C1382   1.267       .  A
O1373      V1379   1.919       .  S
O1373      C1383   1.266       .  A
O1374      V1379   1.909       .  S
O1374      C1384   1.265       .  A
O1375      V1380   1.940       .  S
O1375      C1384   1.275       .  A
O1376      V1380   1.936       .  S
O1376      C1383   1.275       .  A
O1377      V1380   1.889       .  S
O1377      C1382   1.260       .  A
O1378      V1380   1.889       .  S
O1378      C1381   1.258       .  A
V1379      V1380   2.085       .  T
C1381      C1437   1.459       .  S
O1385      V1393   1.900       .  S
O1387      C1397   1.270   1_565  A
O1388      V1393   1.919       .  S
O1388      C1398   1.269   1_565  A
O1389      V1394   1.922       .  S
O1391      V1394   1.901       .  S
O1391      C1396   1.265       .  A
C1397      C1425   1.503       .  S
C1398      C1426   1.497       .  S
O1399      V1407   1.893       .  S
O1399      C1409   1.260       .  A
O1401      C1411   1.272       .  A
O1402      V1407   1.929       .  S
O1402      C1412   1.271       .  A
O1403      V1408   1.923       .  S
O1403      C1412   1.270       .  A
O1404      C1411   1.268       .  A
O1405      V1408   1.898       .  S
O1405      C1410   1.264       .  A
V1407      V1408   2.085       .  T
C1411      C1440   1.500       .  S
C1412      C1439   1.504       .  S
O1413      V1421   1.906       .  S
O1414      V1421   1.906       .  S
O1415      V1421   1.918       .  S
O1415      C1425   1.268   1_565  A
O1416      V1421   1.917       .  S
O1416      C1426   1.268   1_565  A
O1417      V1422   1.927       .  S
O1418      V1422   1.930       .  S
O1419      V1422   1.896       .  S
O1419      C1424   1.261       .  A
O1420      V1422   1.892       .  S
O1420      C1423   1.262       .  A
O1427      V1435   1.899       .  S
O1427      C1437   1.263       .  A
O1428      V1435   1.897       .  S
O1428      C1438   1.263       .  A
O1429      V1435   1.929       .  S
O1429      C1439   1.271       .  A
O1430      V1435   1.931       .  S
O1430      C1440   1.271       .  A
O1431      V1436   1.916       .  S
O1431      C1440   1.268       .  A
O1432      V1436   1.923       .  S
O1432      C1439   1.270       .  A
O1433      V1436   1.900       .  S
O1433      C1438   1.263       .  A
O1434      V1436   1.900       .  S
O1434      C1437   1.263       .  A
V1435      V1436   2.085       .  T
C1441      C1442   1.333   1_554  D
C1441      H1443   1.088       .  S
C1442      H1444   1.089       .  S
C1445      C1446   1.331   1_554  D
C1445      H1447   1.089       .  S
C1446      H1448   1.089       .  S
C1449      C1450   1.339   1_554  D
C1449      H1451   1.089       .  S
C1453      C1454   1.326   1_554  D
C1454      H1456   1.089       .  S
C1457      C1458   1.328       .  D
C1457      H1459   1.088       .  S
C1458      H1460   1.090       .  S
C1461      C1462   1.327       .  D
C1461      H1463   1.090       .  S
C1462      H1464   1.089       .  S
C1465      C1466   1.335       .  D
C1465      H1467   1.089       .  S
C1469      C1470   1.332       .  D
C1469      H1471   1.089       .  S
