geometry optimzed in LAMMPS
_audit_creation_date              2020-11-30 
_audit_creation_method            'lammps2cif' 
_symmetry_space_group_name_H-M    'P1' 
_symmetry_Int_Tables_number       1 
_symmetry_cell_setting            triclinic 
loop_ 
_symmetry_equiv_pos_as_xyz 
  x,y,z 
_cell_length_a                    25.95159096 
_cell_length_b                    26.564483061043173 
_cell_length_c                    58.6707950966366 
_cell_angle_alpha                 90.00351789330595 
_cell_angle_beta                  90.00907565742757 
_cell_angle_gamma                 90.000507767171 
loop_ 
_atom_site_label 
_atom_site_type_symbol 
_atom_site_fract_x 
_atom_site_fract_y 
_atom_site_fract_z 
_atom_site_charge 
C1          C  0.50244196  0.43728620  0.76493005     0.88800
C2          C  0.04865817  0.44242318  0.74954587    -0.51500
C3          C  0.04546717  0.98639771  0.73714755     0.11700
C4          C  0.49778471  0.02048990  0.74137841     0.22600
C5          C  0.50230209  0.48511400  0.77975410    -0.52200
C6          C  0.99806790  0.02877282  0.76739263     0.11800
C7          C  0.45546244  0.44273345  0.74932675    -0.51700
C8          C  0.45048507  0.98605885  0.73734483     0.12400
H9          H  0.07935548  0.41465861  0.74887359     0.16900
H10         H  0.49728235  0.05598233  0.73135634     0.02600
H11         H  0.50248328  0.48448476  0.79827670     0.17200
H12         H  0.42462294  0.41515860  0.74851558     0.17000
O13         O  0.30228105  0.07188290  0.64584649    -0.70700
O14         O  0.19202422  0.05571259  0.69369867    -0.71600
O15         O  0.30414265  0.05529790  0.69388399    -0.60300
O16         O  0.19490865  0.07235129  0.64568303    -0.68700
O17         O  0.19826733  0.48934922  0.63999918    -0.68200
O18         O  0.30832691  0.47324853  0.68772372    -0.59500
O19         O  0.19653400  0.47283160  0.68793843    -0.72000
O20         O  0.30551552  0.48982097  0.63979703    -0.70800
Cu21       Cu  0.24834787  0.06661101  0.67028195     1.04600
Cu22       Cu  0.25217602  0.47834190  0.66395817     1.04300
C23         C  0.31686678  0.03332219  0.63458188     0.95500
C24         C  0.17300823  0.01209486  0.69743655     0.94700
C25         C  0.32277086  0.01155576  0.69768859     0.86800
C26         C  0.18018044  0.03392901  0.63436342     0.93100
O27         O  0.30398950  0.05539214  0.30661424    -0.70700
O28         O  0.19480747  0.07242825  0.35482554    -0.71600
O29         O  0.30218133  0.07195726  0.35465514    -0.60300
O30         O  0.19186871  0.05580689  0.30680723    -0.68700
O31         O  0.19638146  0.47287233  0.31252932    -0.68200
O32         O  0.30542047  0.48983573  0.36066360    -0.59500
O33         O  0.19817121  0.48936630  0.36047106    -0.72000
O34         O  0.30817428  0.47328920  0.31273493    -0.70800
Cu35       Cu  0.24821995  0.06669639  0.33022197     1.04600
Cu36       Cu  0.25205165  0.47837018  0.33650568     1.04300
C37         C  0.32261224  0.01165107  0.30280228     0.95500
C38         C  0.18009234  0.03400306  0.36614135     0.94700
C39         C  0.31678068  0.03339123  0.36591269     0.86800
C40         C  0.17284752  0.01219102  0.30306515     0.93100
O41         O  0.46091168  0.03639504  0.02475716    -0.70700
O42         O  0.46419513  0.43293927  0.97570403    -0.71600
O43         O  0.46414553  0.43295082  0.02476596    -0.60300
O44         O  0.46094722  0.03635652  0.97569416    -0.68700
O45         O  0.03404176  0.03799648  0.97574607    -0.68200
O46         O  0.03818556  0.43133092  0.02476323    -0.59500
O47         O  0.03822848  0.43136270  0.97572944    -0.72000
O48         O  0.03399542  0.03799284  0.02476301    -0.70800
Cu49       Cu  0.46207871  0.48551930  0.00023371     1.04600
Cu50       Cu  0.04172065  0.48384413  0.00025603     1.04300
C51         C  0.50363629  0.05130360  0.03314710     0.95500
C52         C  0.99523980  0.41711108  0.96736942     0.94700
C53         C  0.50673680  0.41760040  0.03312819     0.86800
C54         C  0.99094827  0.05187245  0.96736611     0.93100
O55         O  0.03628032  0.18066994  0.14186160    -0.70700
O56         O  0.04008942  0.28820629  0.19000392    -0.71600
O57         O  0.03880715  0.17938619  0.19035686    -0.60300
O58         O  0.03763972  0.28558635  0.14157773    -0.68700
O59         O  0.46158661  0.28636266  0.14163130    -0.68200
O60         O  0.45859511  0.18026674  0.19051091    -0.59500
O61         O  0.45992902  0.28912634  0.19008857    -0.72000
O62         O  0.46030105  0.18140895  0.14200197    -0.70800
Cu63       Cu  0.04119757  0.23341909  0.16619754     1.04600
Cu64       Cu  0.45711300  0.23432457  0.16631381     1.04300
C65         C  0.50323137  0.16622176  0.13394123     0.95500
C66         C  0.50267987  0.30709355  0.19717699     0.94700
C67         C  0.50089818  0.16157427  0.19775189     0.86800
C68         C  0.50486229  0.30037608  0.13349024     0.93100
C69         C  0.00107386  0.43732341  0.23554235     0.88800
C70         C  0.45525706  0.44277641  0.25113916    -0.51500
C71         C  0.45029766  0.98613387  0.26314756     0.11700
C72         C  0.99789020  0.02066303  0.25908530     0.22600
C73         C  0.00110029  0.48517802  0.22073681    -0.52200
C74         C  0.99785288  0.02886969  0.23311149     0.11800
C75         C  0.04845280  0.44249752  0.25092114    -0.51700
C76         C  0.04526925  0.98649546  0.26335589     0.12400
H77         H  0.42440588  0.41519548  0.25195151     0.16900
H78         H  0.99796767  0.05618631  0.26909253     0.02600
H79         H  0.00042918  0.48457748  0.20221196     0.17200
H80         H  0.07915746  0.41472020  0.25159135     0.17000
O81         O  0.46015360  0.28912812  0.81038427    -0.70700
O82         O  0.46049559  0.18141870  0.85846993    -0.71600
O83         O  0.46180947  0.28637346  0.85884230    -0.60300
O84         O  0.45879163  0.18026733  0.80996125    -0.68700
O85         O  0.03901262  0.17932342  0.81014532    -0.68200
O86         O  0.03781800  0.28559131  0.85890143    -0.59500
O87         O  0.03645760  0.18067233  0.85864075    -0.72000
O88         O  0.04029595  0.28814591  0.81047482    -0.70800
Cu89       Cu  0.45732324  0.23433171  0.83415845     1.04600
Cu90       Cu  0.04138972  0.23338970  0.83429387     1.04300
C91         C  0.99809450  0.30706040  0.80324884     0.95500
C92         C  0.99301828  0.16654863  0.86656776     0.94700
C93         C  0.99477379  0.30063041  0.86689658     0.86800
C94         C  0.99641891  0.16155837  0.80276917     0.93100
O95         O  0.05211135  0.09712273  0.52486269    -0.70700
O96         O  0.44372202  0.09642837  0.47562248    -0.71600
O97         O  0.44371476  0.09642283  0.52488288    -0.60300
O98         O  0.05210045  0.09714834  0.47565500    -0.68700
O99         O  0.05428265  0.51287255  0.47573011    -0.68200
O100        O  0.44886109  0.51353874  0.52471456    -0.59500
O101        O  0.44886071  0.51352805  0.47575651    -0.72000
O102        O  0.05427973  0.51286369  0.52474291    -0.70800
Cu103      Cu  0.99832161  0.10062555  0.50025814     1.04600
Cu104      Cu  0.00061141  0.51117687  0.50023145     1.04300
C105        C  0.06647915  0.05501322  0.53320378     0.95500
C106        C  0.43006748  0.05412890  0.46723605     0.94700
C107        C  0.43005775  0.05412147  0.53326169     0.86800
C108        C  0.06646576  0.05504709  0.46730450     0.93100
C109        C  0.50259222  0.35094653  0.21168713    -0.11000
C110        C  0.50240382  0.38978392  0.22248898    -0.12600
C111        C  0.49889626  0.07818224  0.22256292    -0.11000
C112        C  0.49978437  0.11787684  0.21240057    -0.12600
C113        C  0.99046509  0.08140214  0.94695294    -0.16200
C114        C  0.99044353  0.09987795  0.92820972     0.07800
C115        C  0.99088926  0.11861454  0.90572551     0.09700
C116        C  0.99166334  0.13703334  0.88697456    -0.17100
C117        C  0.99429019  0.33015312  0.88732124    -0.16200
C118        C  0.99429654  0.34897388  0.90599830     0.07800
C119        C  0.99459427  0.36837601  0.92837399     0.09700
C120        C  0.99491964  0.38732381  0.94702366    -0.17100
C121        C  0.50626774  0.38772323  0.05345822    -0.16200
C122        C  0.50615479  0.36857064  0.07207168     0.07800
C123        C  0.50608409  0.34887576  0.09440553     0.09700
C124        C  0.50578158  0.32989937  0.11305608    -0.17100
C125        C  0.50341559  0.08073555  0.05359954    -0.16200
C126        C  0.50341680  0.09917689  0.07235463     0.07800
C127        C  0.50348856  0.11799163  0.09483398     0.09700
C128        C  0.50346995  0.13654277  0.11356599    -0.17100
C129        C  0.40046682  0.05288581  0.44661190    -0.16200
C130        C  0.38239590  0.05008126  0.42772716     0.07800
C131        C  0.36430824  0.04521931  0.40513656     0.09700
C132        C  0.34632064  0.04011404  0.38633485    -0.17100
C133        C  0.15087172  0.04102834  0.38661827    -0.16200
C134        C  0.13295112  0.04640718  0.40540793     0.07800
C135        C  0.11470292  0.05146028  0.42795128     0.09700
C136        C  0.09635883  0.05420727  0.44677624    -0.17100
C137        C  0.40592113  0.99913488  0.27705350    -0.11000
C138        C  0.36724679  0.00608307  0.28823052    -0.12600
C139        C  0.08937280  0.99980495  0.27738400    -0.10200
C140        C  0.12801556  0.00684313  0.28858000    -0.12600
C141        C  0.15093875  0.04096115  0.61388971    -0.16200
C142        C  0.13300126  0.04634362  0.59510073     0.07800
C143        C  0.11473711  0.05140080  0.57255836     0.09700
C144        C  0.09638142  0.05415549  0.55373302    -0.17100
C145        C  0.40045841  0.05287115  0.55388070    -0.16200
C146        C  0.38240062  0.05005514  0.57276489     0.07800
C147        C  0.36434102  0.04517601  0.59535536     0.09700
C148        C  0.34637957  0.04005627  0.61415817    -0.17100
C149        C  0.99685776  0.11782787  0.78814094    -0.11000
C150        C  0.99747259  0.07812807  0.77798331    -0.12600
C151        C  0.99941861  0.35089031  0.78874897    -0.11000
C152        C  0.00042677  0.38972996  0.77796557    -0.12600
C153        C  0.08955944  0.99970571  0.72311953    -0.11000
C154        C  0.12819185  0.00674356  0.71192321    -0.12600
C155        C  0.36741891  0.00598466  0.71225804    -0.11000
C156        C  0.40610091  0.99904271  0.72343556    -0.12600
C157        C  0.49903819  0.93724985  0.76493784     0.88800
C158        C  0.04482223  0.94271041  0.74934547    -0.51500
C159        C  0.04981165  0.48607841  0.73733432     0.11700
C160        C  0.50219994  0.52058177  0.74139806     0.22600
C161        C  0.49900889  0.98510568  0.77974699    -0.52200
C162        C  0.00190785  0.52875403  0.76734296     0.11800
C163        C  0.45165751  0.94241307  0.74956196    -0.51700
C164        C  0.45481775  0.48641968  0.73712752     0.12400
H165        H  0.07565982  0.91513024  0.74853404     0.16900
H166        H  0.50212955  0.55609822  0.73139306     0.02600
H167        H  0.49968247  0.98451159  0.79826190     0.17200
H168        H  0.42095422  0.91463271  0.74889105     0.17000
O169        O  0.30529745  0.57251870  0.64568496    -0.70700
O170        O  0.19611421  0.55538363  0.69388767    -0.71600
O171        O  0.30823404  0.55579114  0.69369531    -0.60300
O172        O  0.19792491  0.57205505  0.64585488    -0.68700
O173        O  0.19467608  0.98964287  0.63982588    -0.68200
O174        O  0.30371275  0.97273560  0.68796381    -0.59500
O175        O  0.19192016  0.97315886  0.68775785    -0.72000
O176        O  0.30192514  0.98916720  0.64001894    -0.70800
Cu177      Cu  0.25188486  0.56673623  0.67028572     1.04600
Cu178      Cu  0.24804349  0.97820543  0.66398628     1.04300
C179        C  0.32000708  0.53411588  0.63434944     0.95500
C180        C  0.17748853  0.51163576  0.69767833     0.94700
C181        C  0.32725100  0.51216581  0.69741638     0.86800
C182        C  0.18332374  0.53351461  0.63457779     0.93100
O183        O  0.30807717  0.55583539  0.30677734    -0.70700
O184        O  0.19782162  0.57207452  0.35462689    -0.71600
O185        O  0.30519462  0.57253679  0.35479001    -0.60300
O186        O  0.19595801  0.55542695  0.30659213    -0.68700
O187        O  0.19176957  0.97325152  0.31273799    -0.68200
O188        O  0.30183168  0.98923909  0.36047011    -0.59500
O189        O  0.19458171  0.98971802  0.36067249    -0.72000
O190        O  0.30356232  0.97282744  0.31252284    -0.70800
Cu191      Cu  0.25175434  0.56676770  0.33019201     1.04600
Cu192      Cu  0.24792097  0.97828868  0.33650576     1.04300
C193        C  0.32708943  0.51221175  0.30304816     0.95500
C194        C  0.18323414  0.53352934  0.36589932     0.94700
C195        C  0.31991956  0.53412830  0.36611730     0.86800
C196        C  0.17732663  0.51168108  0.30279633     0.93100
O197        O  0.46599777  0.53798109  0.02474209    -0.70700
O198        O  0.46188150  0.93133563  0.97572431    -0.71600
O199        O  0.46184726  0.93137610  0.02475841    -0.60300
O200        O  0.46604467  0.53796764  0.97572505    -0.68700
O201        O  0.03921671  0.53638173  0.97573233    -0.68200
O202        O  0.03587023  0.93296528  0.02478271    -0.59500
O203        O  0.03591934  0.93296679  0.97572077    -0.72000
O204        O  0.03917355  0.53635134  0.02479569    -0.70800
Cu205      Cu  0.45837740  0.98385446  0.00023283     1.04600
Cu206      Cu  0.03797365  0.98554055  0.00025379     1.04300
C207        C  0.50908821  0.55186872  0.03312245     0.95500
C208        C  0.99333128  0.91760524  0.96735776     0.94700
C209        C  0.50483114  0.91710610  0.03311686     0.86800
C210        C  0.99650031  0.55130843  0.96734134     0.93100
O211        O  0.03961736  0.68147581  0.14201992    -0.70700
O212        O  0.03992727  0.78919738  0.19010474    -0.71600
O213        O  0.04130280  0.68033823  0.19052802    -0.60300
O214        O  0.03828918  0.78643008  0.14164682    -0.68700
O215        O  0.46225513  0.78562255  0.14159000    -0.68200
O216        O  0.46107972  0.67936887  0.19034598    -0.59500
O217        O  0.45980726  0.78819013  0.19001645    -0.72000
O218        O  0.46360443  0.68070381  0.14185098    -0.70800
Cu219      Cu  0.04277339  0.73439577  0.16633106     1.04600
Cu220      Cu  0.45869308  0.73342824  0.16619795     1.04300
C221        C  0.50703683  0.66657388  0.13391926     0.95500
C222        C  0.50201458  0.80710296  0.19723755     0.94700
C223        C  0.50367658  0.66160199  0.19771668     0.86800
C224        C  0.50529632  0.80065608  0.13359002     0.93100
C225        C  0.99763149  0.93736057  0.23555650     0.88800
C226        C  0.45146055  0.94247827  0.25093671    -0.51500
C227        C  0.45462156  0.48646348  0.26333676     0.11700
C228        C  0.00231438  0.52057085  0.25910513     0.22600
C229        C  0.99777643  0.98518322  0.22072830    -0.52200
C230        C  0.00170964  0.52883779  0.23312949     0.11800
C231        C  0.04461199  0.94280772  0.25115633    -0.51700
C232        C  0.04961723  0.48614470  0.26313819     0.12400
H233        H  0.42075328  0.91470019  0.25160780     0.16900
H234        H  0.00281024  0.55606021  0.26912536     0.02600
H235        H  0.99759193  0.98454852  0.20221801     0.17200
H236        H  0.07545600  0.91522098  0.25196751     0.17000
O237        O  0.46000625  0.78814815  0.81047542    -0.70700
O238        O  0.46377842  0.68062570  0.85862014    -0.71600
O239        O  0.46242623  0.78554310  0.85890238    -0.60300
O240        O  0.46127891  0.67932704  0.81012397    -0.68700
O241        O  0.04151226  0.68023701  0.80997349    -0.68200
O242        O  0.03850479  0.78635281  0.85885159    -0.59500
O243        O  0.03981777  0.68139882  0.85848333    -0.72000
O244        O  0.04015233  0.78909750  0.81039389    -0.70800
Cu245      Cu  0.45887917  0.73336803  0.83428263     1.04600
Cu246      Cu  0.04298654  0.73430547  0.83416984     1.04300
C247        C  0.99739677  0.80705247  0.80330678     0.95500
C248        C  0.99689296  0.66620298  0.86654663     0.94700
C249        C  0.99522792  0.80035828  0.86699427     0.86800
C250        C  0.99921147  0.66153244  0.80273421     0.93100
O251        O  0.05632961  0.59654890  0.52487213    -0.70700
O252        O  0.44804674  0.59723657  0.47563059    -0.71600
O253        O  0.44804807  0.59724730  0.52483918    -0.60300
O254        O  0.05633094  0.59655793  0.47561074    -0.68700
O255        O  0.05112025  0.01344141  0.47576964    -0.68200
O256        O  0.44592790  0.01274139  0.52475423    -0.59500
O257        O  0.44593573  0.01274721  0.47574165    -0.72000
O258        O  0.05112880  0.01341589  0.52472738    -0.70800
Cu259      Cu  0.00261964  0.60072848  0.50023761     1.04600
Cu260      Cu  0.99745025  0.01105589  0.50024607     1.04300
C261        C  0.07006692  0.55427312  0.53325375     0.95500
C262        C  0.43359771  0.55515660  0.46728361     0.94700
C263        C  0.43359866  0.55517072  0.53318447     0.86800
C264        C  0.07006833  0.55428487  0.46722653     0.93100
C265        C  0.50070312  0.85093646  0.21173707    -0.11000
C266        C  0.49969929  0.88977960  0.22252030    -0.12600
C267        C  0.50262530  0.57817654  0.22250041    -0.11000
C268        C  0.50324115  0.61787413  0.21234401    -0.12600
C269        C  0.99673727  0.58073577  0.94688919    -0.16200
C270        C  0.99673843  0.59917411  0.92813395     0.07800
C271        C  0.99665974  0.61798479  0.90565504     0.09700
C272        C  0.99666795  0.63653165  0.88692255    -0.17100
C273        C  0.99430405  0.82988905  0.88742772    -0.16200
C274        C  0.99399847  0.84887201  0.90607840     0.07800
C275        C  0.99392452  0.86857197  0.92841219     0.09700
C276        C  0.99380761  0.88772698  0.94702666    -0.17100
C277        C  0.50513917  0.88732325  0.05346215    -0.16200
C278        C  0.50546098  0.86838092  0.07211194     0.07800
C279        C  0.50576008  0.84898679  0.09448789     0.09700
C280        C  0.50577119  0.83017263  0.11316515    -0.17100
C281        C  0.50956408  0.58140322  0.05353565    -0.16200
C282        C  0.50958474  0.59988359  0.07227880     0.07800
C283        C  0.50914342  0.61862601  0.09476272     0.09700
C284        C  0.50837773  0.63705097  0.11351342    -0.17100
C285        C  0.40370433  0.55435978  0.44675086    -0.16200
C286        C  0.38535591  0.55162915  0.42792334     0.07800
C287        C  0.36709668  0.54657572  0.40537928     0.09700
C288        C  0.34916124  0.54118285  0.38659026    -0.17100
C289        C  0.15372393  0.54028993  0.38632329    -0.16200
C290        C  0.13576738  0.54542272  0.40512593     0.07800
C291        C  0.11771338  0.55030075  0.42771864     0.09700
C292        C  0.09966216  0.55309437  0.44660429    -0.17100
C293        C  0.41053457  0.49978697  0.27736553    -0.11000
C294        C  0.37190426  0.50683900  0.28856194    -0.12600
C295        C  0.09399935  0.49913974  0.27704910    -0.10200
C296        C  0.13267898  0.50609318  0.28822696    -0.12600
C297        C  0.15379023  0.54028194  0.61415743    -0.16200
C298        C  0.13581021  0.54541373  0.59535579     0.07800
C299        C  0.11773192  0.55028662  0.57276482     0.09700
C300        C  0.09966566  0.55307798  0.55387856    -0.17100
C301        C  0.40370693  0.55438014  0.55371364    -0.16200
C302        C  0.38536872  0.55164839  0.57253979     0.07800
C303        C  0.36713155  0.54658662  0.59508432     0.09700
C304        C  0.34922086  0.54118333  0.61387399    -0.17100
C305        C  0.00033152  0.61783064  0.78808484    -0.11000
C306        C  0.00122050  0.57813463  0.77792221    -0.12600
C307        C  0.99747279  0.85090054  0.78879567    -0.11000
C308        C  0.99766088  0.88973457  0.77799356    -0.12600
C309        C  0.09418609  0.49908015  0.72342679    -0.11000
C310        C  0.13285582  0.50604010  0.71224939    -0.12600
C311        C  0.37207916  0.50678528  0.71190117    -0.11000
C312        C  0.41071704  0.49973226  0.72309774    -0.12600
C313        C  0.00128187  0.43724035  0.76491802     0.88800
C314        C  0.54940545  0.44303564  0.74935435    -0.51500
C315        C  0.54546899  0.98688453  0.73694628     0.11700
C316        C  0.99808894  0.02056423  0.74141694     0.22600
C317        C  0.00130649  0.48508725  0.77973406    -0.52200
C318        C  0.49839204  0.02876596  0.76735143     0.11800
C319        C  0.95473064  0.44319203  0.74911582    -0.51700
C320        C  0.95047643  0.98672549  0.73719174     0.12400
H321        H  0.58053167  0.41570222  0.74860417     0.16900
H322        H  0.99815785  0.05607899  0.73141331     0.02600
H323        H  0.00064174  0.48447993  0.79824348     0.17200
H324        H  0.92348690  0.41603790  0.74823647     0.17000
O325        O  0.80222268  0.07476397  0.64616206    -0.70700
O326        O  0.69196725  0.05791692  0.69397151    -0.71600
O327        O  0.80411619  0.05771812  0.69416781    -0.60300
O328        O  0.69479956  0.07499297  0.64599673    -0.68700
O329        O  0.69814971  0.49199415  0.64017148    -0.68200
O330        O  0.80818702  0.47537157  0.68783455    -0.59500
O331        O  0.69649919  0.47517416  0.68806302    -0.72000
O332        O  0.80545050  0.49222276  0.63995130    -0.70800
Cu333      Cu  0.74827984  0.06915217  0.67058616     1.04600
Cu334      Cu  0.75207802  0.48072662  0.66409776     1.04300
C335        C  0.81692599  0.03633877  0.63483057     0.95500
C336        C  0.67303401  0.01421407  0.69758475     0.94700
C337        C  0.82279479  0.01394596  0.69785859     0.86800
C338        C  0.68012775  0.03665318  0.63460261     0.93100
O339        O  0.80393948  0.05781970  0.30633854    -0.70700
O340        O  0.69466729  0.07506611  0.35451910    -0.71600
O341        O  0.80209016  0.07486062  0.35434578    -0.60300
O342        O  0.69179037  0.05799785  0.30654156    -0.68700
O343        O  0.69634140  0.47521473  0.31240312    -0.68200
O344        O  0.80534476  0.49227343  0.36050742    -0.59500
O345        O  0.69804338  0.49202187  0.36029703    -0.72000
O346        O  0.80802744  0.47543217  0.31262314    -0.70800
Cu347      Cu  0.74812360  0.06924055  0.32992480     1.04600
Cu348      Cu  0.75194565  0.48077162  0.33636476     1.04300
C349        C  0.82262226  0.01405058  0.30264302     0.95500
C350        C  0.68001906  0.03672130  0.36591151     0.94700
C351        C  0.81681440  0.03643690  0.36567238     0.86800
C352        C  0.67286284  0.01429239  0.30292485     0.93100
O353        O  0.94830909  0.03655097  0.02474354    -0.70700
O354        O  0.95253569  0.43213964  0.97572278    -0.71600
O355        O  0.95249267  0.43210789  0.02472933    -0.60300
O356        O  0.94835545  0.03655702  0.97572316    -0.68700
O357        O  0.54664097  0.03706134  0.97572447    -0.68200
O358        O  0.54982536  0.43155106  0.02477392    -0.59500
O359        O  0.54987500  0.43153958  0.97574255    -0.72000
O360        O  0.54660588  0.03709888  0.02476386    -0.70800
Cu361      Cu  0.95000499  0.48465820  0.00023411     1.04600
Cu362      Cu  0.55378357  0.48400717  0.00025781     1.04300
C363        C  0.99088681  0.05186399  0.03312320     0.95500
C364        C  0.50680343  0.41758706  0.96736452     0.94700
C365        C  0.99518204  0.41706825  0.03309788     0.86800
C366        C  0.50368388  0.05125457  0.96731958     0.93100
O367        O  0.54598270  0.18038833  0.14256738    -0.70700
O368        O  0.54551292  0.28821643  0.19068388    -0.71600
O369        O  0.54416649  0.17925063  0.19111488    -0.60300
O370        O  0.54726259  0.28540648  0.14218213    -0.68700
O371        O  0.95196923  0.28662746  0.14236989    -0.68200
O372        O  0.95324389  0.18027041  0.19123498    -0.59500
O373        O  0.95451468  0.28923438  0.19085047    -0.72000
O374        O  0.95060675  0.18164865  0.14270098    -0.70800
Cu375      Cu  0.54873608  0.23327878  0.16693765     1.04600
Cu376      Cu  0.94958024  0.23447757  0.16709981     1.04300
C377        C  0.99284554  0.16653601  0.13392624     0.95500
C378        C  0.99788398  0.30712943  0.19721542     0.94700
C379        C  0.99620967  0.16162931  0.19772555     0.86800
C380        C  0.99460073  0.30061340  0.13356802     0.93100
C381        C  0.50222164  0.43731582  0.23553800     0.88800
C382        C  0.95452611  0.44327620  0.25134258    -0.51500
C383        C  0.95027452  0.98682814  0.26330938     0.11700
C384        C  0.49760274  0.02055496  0.25911575     0.22600
C385        C  0.50207977  0.48513729  0.22070967    -0.52200
C386        C  0.49820774  0.02880468  0.23313943     0.11800
C387        C  0.54919880  0.44306580  0.25111310    -0.51700
C388        C  0.54528134  0.98694476  0.26355670     0.12400
H389        H  0.92327602  0.41612296  0.25221450     0.16900
H390        H  0.49710872  0.05605359  0.26913182     0.02600
H391        H  0.50224919  0.48449858  0.20219649     0.17200
H392        H  0.58031315  0.41573561  0.25186428     0.17000
O393        O  0.95472177  0.28917279  0.80960644    -0.70700
O394        O  0.95078484  0.18165090  0.85777896    -0.71600
O395        O  0.95214811  0.28663181  0.85808700    -0.60300
O396        O  0.95345013  0.18020800  0.80924525    -0.68700
O397        O  0.54436270  0.17923179  0.80937004    -0.68200
O398        O  0.54748514  0.28539600  0.85830657    -0.59500
O399        O  0.54617650  0.18037424  0.85791843    -0.72000
O400        O  0.54573701  0.28820062  0.80980244    -0.70800
Cu401      Cu  0.94977315  0.23444771  0.83336797     1.04600
Cu402      Cu  0.54894558  0.23326388  0.83354921     1.04300
C403        C  0.50290793  0.30708456  0.80330158     0.95500
C404        C  0.50342052  0.16621748  0.86653608     0.94700
C405        C  0.50508678  0.30037684  0.86699175     0.86800
C406        C  0.50109064  0.16156172  0.80272709     0.93100
O407        O  0.55126170  0.09897316  0.52491869    -0.70700
O408        O  0.94453604  0.09813084  0.47558592    -0.71600
O409        O  0.94454742  0.09810306  0.52492720    -0.60300
O410        O  0.55126890  0.09897926  0.47560935    -0.68700
O411        O  0.55609683  0.51430710  0.47570723    -0.68200
O412        O  0.94707800  0.51520058  0.52472978    -0.59500
O413        O  0.94708135  0.51521136  0.47572384    -0.72000
O414        O  0.55609785  0.51431742  0.52477814    -0.70800
Cu415      Cu  0.49742086  0.10070405  0.50025856     1.04600
Cu416      Cu  0.50252968  0.51105700  0.50023924     1.04300
C417        C  0.56693961  0.05733724  0.53329626     0.95500
C418        C  0.92954210  0.05630045  0.46716013     0.94700
C419        C  0.92955605  0.05626263  0.53334030     0.86800
C420        C  0.56694791  0.05734646  0.46722998     0.93100
C421        C  0.99920097  0.35097386  0.21170888    -0.11000
C422        C  0.00021010  0.38981802  0.22249143    -0.12600
C423        C  0.99725536  0.07822120  0.22252087    -0.11000
C424        C  0.99664128  0.11791514  0.21236046    -0.12600
C425        C  0.50349475  0.08067092  0.94686250    -0.16200
C426        C  0.50352836  0.09911686  0.92810978     0.07800
C427        C  0.50363794  0.11795464  0.90563397     0.09700
C428        C  0.50364446  0.13652518  0.88690736    -0.17100
C429        C  0.50600670  0.32989958  0.88742798    -0.16200
C430        C  0.50628564  0.34887313  0.90608066     0.07800
C431        C  0.50630978  0.36856200  0.92841669     0.09700
C432        C  0.50637877  0.38771013  0.94703267    -0.17100
C433        C  0.99482801  0.38725848  0.05343464    -0.16200
C434        C  0.99447628  0.36830370  0.07208144     0.07800
C435        C  0.99415260  0.34891032  0.09445722     0.09700
C436        C  0.99412951  0.33010804  0.11313685    -0.17100
C437        C  0.99036758  0.08138442  0.05354053    -0.16200
C438        C  0.99032184  0.09984974  0.07228628     0.07800
C439        C  0.99074531  0.11857899  0.09477268     0.09700
C440        C  0.99150420  0.13700182  0.11352381    -0.17100
C441        C  0.90022205  0.05598710  0.44643506    -0.16200
C442        C  0.88236237  0.05351316  0.42749324     0.07800
C443        C  0.86438819  0.04866840  0.40487259     0.09700
C444        C  0.84640109  0.04341754  0.38607300    -0.17100
C445        C  0.65071460  0.04389339  0.38636514    -0.16200
C446        C  0.63277447  0.04949198  0.40514533     0.07800
C447        C  0.61463552  0.05475291  0.42770887     0.09700
C448        C  0.59652038  0.05736077  0.44659061    -0.17100
C449        C  0.90605080  0.00072022  0.27710590    -0.11000
C450        C  0.86733450  0.00828038  0.28815679    -0.12600
C451        C  0.58923242  0.00104973  0.27748745    -0.10200
C452        C  0.62793862  0.00863448  0.28854850    -0.12600
C453        C  0.65079379  0.04383668  0.61415452    -0.16200
C454        C  0.63282332  0.04944984  0.59537858     0.07800
C455        C  0.61465143  0.05472772  0.57281887     0.09700
C456        C  0.59651740  0.05734622  0.55393840    -0.17100
C457        C  0.90024840  0.05592697  0.55406447    -0.16200
C458        C  0.88240496  0.05343500  0.57300635     0.07800
C459        C  0.86445515  0.04857477  0.59562723     0.09700
C460        C  0.84648980  0.04331781  0.61442793    -0.17100
C461        C  0.49996758  0.11785566  0.78808113    -0.11000
C462        C  0.49907708  0.07815196  0.77792326    -0.12600
C463        C  0.50282848  0.35092961  0.78878789    -0.11000
C464        C  0.50263528  0.38975961  0.77798130    -0.12600
C465        C  0.58941555  0.00098295  0.72301878    -0.11000
C466        C  0.62811768  0.00856297  0.71196018    -0.12600
C467        C  0.86751926  0.00816841  0.71234298    -0.11000
C468        C  0.90624179  0.00060974  0.72339373    -0.12600
C469        C  0.99785219  0.93726514  0.76494454     0.88800
C470        C  0.54558342  0.94320319  0.74913787    -0.51500
C471        C  0.54981015  0.48673892  0.73717709     0.11700
C472        C  0.00250716  0.52049820  0.74136852     0.22600
C473        C  0.99800192  0.98508868  0.77977325    -0.52200
C474        C  0.50223457  0.52879459  0.76737519     0.11800
C475        C  0.95088011  0.94301743  0.74936780    -0.51700
C476        C  0.95482892  0.48687880  0.73692989     0.12400
H477        H  0.57683559  0.91605716  0.74826428     0.16900
H478        H  0.00299502  0.55598491  0.73135404     0.02600
H479        H  0.99782865  0.98445631  0.79828601     0.17200
H480        H  0.91976068  0.91569429  0.74861505     0.17000
O481        O  0.80542617  0.57487655  0.64595759    -0.70700
O482        O  0.69615541  0.55768628  0.69414144    -0.71600
O483        O  0.80830546  0.55787391  0.69393812    -0.60300
O484        O  0.69800344  0.57466207  0.64613127    -0.68700
O485        O  0.69475624  0.99234785  0.63996608    -0.68200
O486        O  0.80375769  0.97521494  0.68806482    -0.59500
O487        O  0.69207058  0.97542331  0.68784365    -0.72000
O488        O  0.80205726  0.99210470  0.64017780    -0.70800
Cu489      Cu  0.75197065  0.56907964  0.67055289     1.04600
Cu490      Cu  0.74815414  0.98080851  0.66410476     1.04300
C491        C  0.82007862  0.53651804  0.63457312     0.95500
C492        C  0.67747391  0.51392086  0.69784578     0.94700
C493        C  0.82723728  0.51417561  0.69756347     0.86800
C494        C  0.68328073  0.53622291  0.63481303     0.93100
O495        O  0.80812559  0.55793611  0.30652829    -0.70700
O496        O  0.69787180  0.57469119  0.35434593    -0.71600
O497        O  0.80529594  0.57492870  0.35451022    -0.60300
O498        O  0.69597700  0.55772822  0.30633310    -0.68700
O499        O  0.69191505  0.97550345  0.31266259    -0.68200
O500        O  0.80194903  0.99220024  0.36032240    -0.59500
O501        O  0.69464947  0.99241993  0.36054210    -0.72000
O502        O  0.80360083  0.97531553  0.31243441    -0.70800
Cu503      Cu  0.75181378  0.56912630  0.32991896     1.04600
Cu504      Cu  0.74802239  0.98089589  0.33639842     1.04300
C505        C  0.82706113  0.51424167  0.30289740     0.95500
C506        C  0.68317136  0.53624533  0.36566205     0.94700
C507        C  0.81997145  0.53657055  0.36588838     0.86800
C508        C  0.67730078  0.51396078  0.30262466     0.93100
O509        O  0.95347997  0.53709448  0.02476310    -0.70700
O510        O  0.95023980  0.93154672  0.97571262    -0.71600
O511        O  0.95019073  0.93154282  0.02474438    -0.60300
O512        O  0.95352292  0.53712499  0.97572363    -0.68700
O513        O  0.55173129  0.53654795  0.97574529    -0.68200
O514        O  0.54754047  0.93211325  0.02476230    -0.59500
O515        O  0.54757489  0.93207429  0.97575563    -0.72000
O516        O  0.55168443  0.53656158  0.02476565    -0.70800
Cu517      Cu  0.94626907  0.98400572  0.00023000     1.04600
Cu518      Cu  0.55009342  0.98462679  0.00025209     1.04300
C519        C  0.99644309  0.55127052  0.03316970     0.95500
C520        C  0.50487658  0.91705236  0.96738746     0.94700
C521        C  0.99326518  0.91760339  0.03312196     0.86800
C522        C  0.50914987  0.55184778  0.96736522     0.93100
O523        O  0.54927792  0.68167628  0.14270271    -0.70700
O524        O  0.54538223  0.78921028  0.19087505    -0.71600
O525        O  0.54664293  0.68024623  0.19123589    -0.60300
O526        O  0.54792560  0.78665681  0.14239463    -0.68700
O527        O  0.95261332  0.78544106  0.14217756    -0.68200
O528        O  0.95573153  0.67929000  0.19111298    -0.59500
O529        O  0.95434371  0.78825817  0.19068131    -0.72000
O530        O  0.95393619  0.68042024  0.14256509    -0.70800
Cu531      Cu  0.55031042  0.73447920  0.16711312     1.04600
Cu532      Cu  0.95115079  0.73331527  0.16693410     1.04300
C533        C  0.99669738  0.66626582  0.13395073     0.95500
C534        C  0.99716773  0.80714942  0.19718466     0.94700
C535        C  0.99900296  0.66162812  0.19775886     0.86800
C536        C  0.99501246  0.80042552  0.13349480     0.93100
C537        C  0.49883856  0.93729218  0.23556566     0.88800
C538        C  0.95067227  0.94312212  0.25113181    -0.51500
C539        C  0.95463336  0.48695742  0.26353384     0.11700
C540        C  0.50200746  0.52062331  0.25906631     0.22600
C541        C  0.49881524  0.98513562  0.22075286    -0.52200
C542        C  0.50202475  0.52882285  0.23309036     0.11800
C543        C  0.54538760  0.94325349  0.25137143    -0.51700
C544        C  0.54961367  0.48677534  0.26328917     0.12400
H545        H  0.91953505  0.91578859  0.25188363     0.16900
H546        H  0.50194692  0.55613643  0.26906933     0.02600
H547        H  0.49948560  0.98452216  0.20222910     0.17200
H548        H  0.57663471  0.91610271  0.25225149     0.17000
O549        O  0.95456865  0.78816762  0.80980208    -0.70700
O550        O  0.95413638  0.68035487  0.85792157    -0.71600
O551        O  0.95282903  0.78537375  0.85830429    -0.60300
O552        O  0.95594125  0.67920072  0.80937293    -0.68700
O553        O  0.54684264  0.68020570  0.80925504    -0.68200
O554        O  0.54809730  0.78657889  0.85812012    -0.59500
O555        O  0.54945232  0.68159918  0.85778986    -0.72000
O556        O  0.54558138  0.78917095  0.80963860    -0.70800
Cu557      Cu  0.95136392  0.73323663  0.83354980     1.04600
Cu558      Cu  0.55049695  0.73442074  0.83339057     1.04300
C559        C  0.50221748  0.80706622  0.80326835     0.95500
C560        C  0.50720712  0.66649198  0.86656025     0.94700
C561        C  0.50546146  0.80057085  0.86691718     0.86800
C562        C  0.50387874  0.66156526  0.80275974     0.93100
O563        O  0.55561467  0.59802093  0.52491190    -0.70700
O564        O  0.94877925  0.59890235  0.47557880    -0.71600
O565        O  0.94877771  0.59889154  0.52488786    -0.60300
O566        O  0.55561219  0.59801067  0.47557140    -0.68700
O567        O  0.55313273  0.01529158  0.47575684    -0.68200
O568        O  0.94389413  0.01440064  0.52478003    -0.59500
O569        O  0.94388551  0.01442827  0.47570895    -0.72000
O570        O  0.55312463  0.01528560  0.52476259    -0.70800
Cu571      Cu  0.50183832  0.60062815  0.50023828     1.04600
Cu572      Cu  0.49960537  0.01115636  0.50025377     1.04300
C573        C  0.57052533  0.55615808  0.53333185     0.95500
C574        C  0.93318202  0.55724035  0.46719602     0.94700
C575        C  0.93317980  0.55722553  0.53326185     0.86800
C576        C  0.57052137  0.55614542  0.46715340     0.93100
C577        C  0.99723850  0.85099849  0.21169813    -0.11000
C578        C  0.99743044  0.88983127  0.22250394    -0.12600
C579        C  0.00102002  0.57822346  0.22256076    -0.11000
C580        C  0.00012700  0.61792535  0.21240391    -0.12600
C581        C  0.50966298  0.58136236  0.94694739    -0.16200
C582        C  0.50970804  0.59982196  0.92820156     0.07800
C583        C  0.50928830  0.61854579  0.90571465     0.09700
C584        C  0.50853632  0.63696341  0.88696364    -0.17100
C585        C  0.50592265  0.83007237  0.88734743    -0.16200
C586        C  0.50589099  0.84888237  0.90602743     0.07800
C587        C  0.50556210  0.86828194  0.92840230     0.09700
C588        C  0.50521404  0.88724118  0.94705025    -0.17100
C589        C  0.99369942  0.88773076  0.05345338    -0.16200
C590        C  0.99377700  0.86858836  0.07206937     0.07800
C591        C  0.99381021  0.84890818  0.09440558     0.09700
C592        C  0.99409356  0.82994152  0.11305874    -0.17100
C593        C  0.99664331  0.58069062  0.05362628    -0.16200
C594        C  0.99661220  0.59914285  0.07237957     0.07800
C595        C  0.99649890  0.61798770  0.09485416     0.09700
C596        C  0.99648485  0.63656620  0.11358082    -0.17100
C597        C  0.90359927  0.55720272  0.44655526    -0.16200
C598        C  0.88546107  0.55457476  0.42767551     0.07800
C599        C  0.86728375  0.54931069  0.40511551     0.09700
C600        C  0.84930910  0.54372131  0.38633860    -0.17100
C601        C  0.65360601  0.54318771  0.38606715    -0.16200
C602        C  0.63563739  0.54841873  0.40486899     0.07800
C603        C  0.61768266  0.55326344  0.42749004     0.09700
C604        C  0.59983485  0.55576396  0.44643096    -0.17100
C605        C  0.91068297  0.50105097  0.27746141    -0.11000
C606        C  0.87197834  0.50861668  0.28852018    -0.12600
C607        C  0.59385185  0.50065417  0.27708694    -0.10200
C608        C  0.63257687  0.50820308  0.28813879    -0.12600
C609        C  0.65368973  0.54317711  0.61441205    -0.16200
C610        C  0.63569789  0.54842133  0.59561377     0.07800
C611        C  0.61771614  0.55327895  0.57299479     0.09700
C612        C  0.59985085  0.55578323  0.55405557    -0.17100
C613        C  0.90360225  0.55717776  0.55389972    -0.16200
C614        C  0.88548058  0.55453872  0.57277941     0.07800
C615        C  0.86733329  0.54926370  0.59534045     0.09700
C616        C  0.84938670  0.54366918  0.61411965    -0.17100
C617        C  0.50345094  0.61784720  0.78812462    -0.11000
C618        C  0.50283612  0.57815073  0.77796328    -0.12600
C619        C  0.50091213  0.85090607  0.78877333    -0.11000
C620        C  0.49990728  0.88974571  0.77799026    -0.12600
C621        C  0.59403903  0.50061902  0.72338110    -0.11000
C622        C  0.63275888  0.50816728  0.71233112    -0.12600
C623        C  0.87216540  0.50854092  0.71193926    -0.11000
C624        C  0.91087482  0.50097224  0.72299960    -0.12600
loop_ 
_geom_bond_atom_site_label_1 
_geom_bond_atom_site_label_2 
_geom_bond_distance 
_geom_bond_site_symmetry_2 
_ccdc_geom_bond_type 
C1            C7   1.531       .  S
C1            C5   1.540       .  S
C1          C314   1.531       .  S
C1          C464   1.477       .  S
C2          C313   1.531       .  S
C2            H9   1.086       .  S
C2          C159   1.364       .  D
C3          C316   1.549   1_465  S
C3          C158   1.364       .  D
C3          C153   1.453       .  S
C4            C8   1.549   1_545  S
C4          C315   1.548   1_545  S
C4          C318   1.540       .  S
C4           H10   1.111       .  S
C5           H11   1.087       .  S
C5          C474   1.369       .  D
C6          C316   1.540       .  S
C6          C473   1.369   1_545  D
C6          C150   1.451       .  S
C7           H12   1.086       .  S
C7          C164   1.364       .  D
C8          C163   1.363       .  D
C8          C156   1.453       .  S
O13         Cu21   2.009       .  S
O13          C23   1.276       .  A
O14         Cu21   2.027       .  S
O14          C24   1.278       .  A
O15         Cu21   2.026       .  S
O15          C25   1.278       .  A
O16         Cu21   2.007       .  S
O16          C26   1.276       .  A
O17         Cu22   2.005       .  S
O17         C182   1.276       .  A
O18         Cu22   2.021       .  S
O18         C181   1.278       .  A
O19         Cu22   2.022       .  S
O19         C180   1.278       .  A
O20         Cu22   2.005       .  S
O20         C179   1.276       .  A
Cu21       Cu178   2.377   1_545  S
Cu22       Cu177   2.377       .  S
C23         O176   1.276   1_545  A
C23         C148   1.433       .  S
C24         O175   1.278   1_545  A
C24         C154   1.448       .  S
C25         O174   1.278   1_545  A
C25         C155   1.447       .  S
C26         O173   1.276   1_545  A
C26         C141   1.433       .  S
O27         Cu35   2.026       .  S
O27          C37   1.278       .  A
O28         Cu35   2.007       .  S
O28          C38   1.276       .  A
O29         Cu35   2.009       .  S
O29          C39   1.276       .  A
O30         Cu35   2.027       .  S
O30          C40   1.278       .  A
O31         Cu36   2.022       .  S
O31         C196   1.278       .  A
O32         Cu36   2.005       .  S
O32         C195   1.276       .  A
O33         Cu36   2.005       .  S
O33         C194   1.276       .  A
O34         Cu36   2.021       .  S
O34         C193   1.278       .  A
Cu35       Cu192   2.377   1_545  S
Cu36       Cu191   2.377       .  S
C37         O190   1.278   1_545  A
C37         C138   1.447       .  S
C38         O189   1.276   1_545  A
C38         C133   1.433       .  S
C39         O188   1.276   1_545  A
C39         C132   1.433       .  S
C40         O187   1.278   1_545  A
C40         C140   1.448       .  S
O41        Cu205   2.006   1_545  S
O41          C51   1.276       .  A
O42         Cu49   2.006   1_556  S
O42         C364   1.276       .  A
O43         Cu49   2.006       .  S
O43          C53   1.276       .  A
O44        Cu205   2.006   1_546  S
O44         C366   1.276       .  A
O45        Cu206   2.005   1_546  S
O45          C54   1.276   1_455  A
O46         Cu50   2.006       .  S
O46         C365   1.276   1_455  A
O47         Cu50   2.006   1_556  S
O47          C52   1.276   1_455  A
O48        Cu206   2.005   1_545  S
O48         C363   1.276   1_455  A
Cu49        O197   2.005       .  S
Cu49        O200   2.005   1_554  S
Cu49       Cu362   2.380       .  S
Cu50        O201   2.006   1_554  S
Cu50        O204   2.006       .  S
Cu50       Cu361   2.380   1_455  S
C51         O360   1.276       .  A
C51         C125   1.432       .  S
C52         O354   1.276       .  A
C52         C120   1.432       .  S
C53         O358   1.276       .  A
C53         C121   1.433       .  S
C54         O356   1.276       .  A
C54         C113   1.432       .  S
O55         Cu63   2.005       .  S
O55         C377   1.276   1_455  A
O56         Cu63   2.017       .  S
O56         C378   1.277   1_455  A
O57         Cu63   2.018       .  S
O57         C379   1.277   1_455  A
O58         Cu63   2.004       .  S
O58         C380   1.276   1_455  A
O59         Cu64   2.005       .  S
O59          C68   1.276       .  A
O60         Cu64   2.020       .  S
O60          C67   1.278       .  A
O61         Cu64   2.017       .  S
O61          C66   1.277       .  A
O62         Cu64   2.004       .  S
O62          C65   1.276       .  A
Cu63       Cu376   2.378   1_455  S
Cu64       Cu375   2.378       .  S
C65         O367   1.276       .  A
C65         C128   1.432       .  S
C66         O368   1.278       .  A
C66         C109   1.443       .  S
C67         O369   1.278       .  A
C67         C112   1.445       .  S
C68         O370   1.276       .  A
C68         C124   1.433       .  S
C69          C75   1.531       .  S
C69          C73   1.540       .  S
C69         C382   1.531   1_455  S
C69         C422   1.476       .  S
C70         C381   1.531       .  S
C70          H77   1.086       .  S
C70         C227   1.364       .  D
C71         C384   1.549   1_565  S
C71         C226   1.363       .  D
C71         C137   1.453       .  S
C72          C76   1.549   1_645  S
C72          C74   1.539       .  S
C72         C383   1.548   1_545  S
C72          H78   1.111       .  S
C73          H79   1.087       .  S
C73         C230   1.369       .  D
C74         C229   1.369   1_545  D
C74         C423   1.451       .  S
C75          H80   1.087       .  S
C75         C232   1.363       .  D
C76         C231   1.364       .  D
C76         C139   1.453       .  S
O81         Cu89   2.017       .  S
O81         C403   1.277       .  A
O82         Cu89   2.004       .  S
O82         C404   1.276       .  A
O83         Cu89   2.005       .  S
O83         C405   1.276       .  A
O84         Cu89   2.020       .  S
O84         C406   1.278       .  A
O85         Cu90   2.018       .  S
O85          C94   1.277   1_455  A
O86         Cu90   2.004       .  S
O86          C93   1.276   1_455  A
O87         Cu90   2.005       .  S
O87          C92   1.276   1_455  A
O88         Cu90   2.017       .  S
O88          C91   1.277   1_455  A
Cu89       Cu402   2.378       .  S
Cu90       Cu401   2.378   1_455  S
C91         O393   1.278       .  A
C91         C151   1.442       .  S
C92         O394   1.276       .  A
C92         C116   1.432       .  S
C93         O395   1.276       .  A
C93         C117   1.432       .  S
C94         O396   1.278       .  A
C94         C149   1.444       .  S
O95        Cu103   2.010   1_455  S
O95         C105   1.277       .  A
O96        Cu415   2.011       .  S
O96         C106   1.277       .  A
O97        Cu415   2.011       .  S
O97         C107   1.277       .  A
O98        Cu103   2.010   1_455  S
O98         C108   1.277       .  A
O99        Cu104   2.002       .  S
O99         C264   1.276       .  A
O100       Cu416   2.002       .  S
O100        C263   1.276       .  A
O101       Cu416   2.002       .  S
O101        C262   1.276       .  A
O102       Cu104   2.002       .  S
O102        C261   1.276       .  A
Cu103       O408   2.012       .  S
Cu103       O409   2.012       .  S
Cu103      Cu260   2.379       .  S
Cu104       O412   2.002   1_455  S
Cu104       O413   2.002   1_455  S
Cu104      Cu259   2.379       .  S
C105        O258   1.276       .  A
C105        C144   1.433       .  S
C106        O257   1.276       .  A
C106        C129   1.434       .  S
C107        O256   1.276       .  A
C107        C145   1.433       .  S
C108        O255   1.276       .  A
C108        C136   1.433       .  S
C109        C110   1.211       .  T
C110        C381   1.477       .  S
C111        C386   1.451       .  S
C111        C112   1.212       .  T
C113        C114   1.204       .  T
C114        C115   1.410       .  S
C115        C116   1.204       .  T
C117        C118   1.204       .  T
C118        C119   1.410       .  S
C119        C120   1.204       .  T
C121        C122   1.205       .  T
C122        C123   1.411       .  S
C123        C124   1.205       .  T
C125        C126   1.204       .  T
C126        C127   1.410       .  S
C127        C128   1.204       .  T
C129        C130   1.205       .  T
C130        C131   1.412       .  S
C131        C132   1.205       .  T
C133        C134   1.205       .  T
C134        C135   1.411       .  S
C135        C136   1.205       .  T
C137        C138   1.213   1_565  T
C139        C140   1.213   1_565  T
C141        C142   1.205       .  T
C142        C143   1.411       .  S
C143        C144   1.205       .  T
C145        C146   1.205       .  T
C146        C147   1.412       .  S
C147        C148   1.205       .  T
C149        C150   1.211       .  T
C151        C152   1.211   1_655  T
C152        C313   1.476       .  S
C153        C154   1.213   1_565  T
C155        C156   1.213   1_545  T
C157        C470   1.531       .  S
C157        C163   1.531       .  S
C157        C161   1.540       .  S
C157        C620   1.476       .  S
C158        C469   1.531   1_455  S
C158        H165   1.086       .  S
C159        C472   1.549       .  S
C159        C309   1.453       .  S
C160        C471   1.548       .  S
C160        C164   1.549       .  S
C160        C474   1.540       .  S
C160        H166   1.111       .  S
C161        H167   1.087       .  S
C161        C318   1.369   1_565  D
C162        C472   1.540       .  S
C162        C317   1.369       .  D
C162        C306   1.451       .  S
C163        H168   1.087       .  S
C164        C312   1.453       .  S
O169       Cu177   2.007       .  S
O169        C179   1.276       .  A
O170       Cu177   2.026       .  S
O170        C180   1.278       .  A
O171       Cu177   2.027       .  S
O171        C181   1.278       .  A
O172       Cu177   2.009       .  S
O172        C182   1.276       .  A
O173       Cu178   2.005       .  S
O174       Cu178   2.022       .  S
O175       Cu178   2.021       .  S
O176       Cu178   2.005       .  S
C179        C304   1.433       .  S
C180        C310   1.447       .  S
C181        C311   1.448       .  S
C182        C297   1.433       .  S
O183       Cu191   2.027       .  S
O183        C193   1.278       .  A
O184       Cu191   2.009       .  S
O184        C194   1.276       .  A
O185       Cu191   2.007       .  S
O185        C195   1.276       .  A
O186       Cu191   2.026       .  S
O186        C196   1.278       .  A
O187       Cu192   2.021       .  S
O188       Cu192   2.005       .  S
O189       Cu192   2.005       .  S
O190       Cu192   2.022       .  S
C193        C294   1.448       .  S
C194        C289   1.434       .  S
C195        C288   1.433       .  S
C196        C296   1.447       .  S
O197        C207   1.276       .  A
O198       Cu205   2.006   1_556  S
O198        C520   1.276       .  A
O199       Cu205   2.006       .  S
O199        C209   1.276       .  A
O200        C522   1.276       .  A
O201        C210   1.276   1_455  A
O202       Cu206   2.006       .  S
O202        C521   1.276   1_455  A
O203       Cu206   2.006   1_556  S
O203        C208   1.276   1_455  A
O204        C519   1.276   1_455  A
Cu205      Cu518   2.380       .  S
Cu206      Cu517   2.380   1_455  S
C207        O516   1.276       .  A
C207        C281   1.432       .  S
C208        O510   1.276       .  A
C208        C276   1.433       .  S
C209        O514   1.276       .  A
C209        C277   1.432       .  S
C210        O512   1.276       .  A
C210        C269   1.432       .  S
O211       Cu219   2.004       .  S
O211        C533   1.276   1_455  A
O212       Cu219   2.017       .  S
O212        C534   1.277   1_455  A
O213       Cu219   2.020       .  S
O213        C535   1.278   1_455  A
O214       Cu219   2.005       .  S
O214        C536   1.276   1_455  A
O215       Cu220   2.004       .  S
O215        C224   1.276       .  A
O216       Cu220   2.018       .  S
O216        C223   1.277       .  A
O217       Cu220   2.017       .  S
O217        C222   1.277       .  A
O218       Cu220   2.005       .  S
O218        C221   1.276       .  A
Cu219      Cu532   2.378   1_455  S
Cu220      Cu531   2.378       .  S
C221        O523   1.276       .  A
C221        C284   1.432       .  S
C222        O524   1.278       .  A
C222        C265   1.442       .  S
C223        O525   1.278       .  A
C223        C268   1.444       .  S
C224        O526   1.276       .  A
C224        C280   1.432       .  S
C225        C538   1.531       .  S
C225        C231   1.531   1_655  S
C225        C229   1.540       .  S
C225        C578   1.477       .  S
C226        C537   1.531       .  S
C226        H233   1.087       .  S
C227        C540   1.549       .  S
C227        C293   1.453       .  S
C228        C539   1.548   1_455  S
C228        C232   1.549       .  S
C228        C230   1.540       .  S
C228        H234   1.111       .  S
C229        H235   1.086       .  S
C230        C579   1.451       .  S
C231        H236   1.086       .  S
C232        C295   1.453       .  S
O237       Cu245   2.017       .  S
O237        C559   1.277       .  A
O238       Cu245   2.005       .  S
O238        C560   1.276       .  A
O239       Cu245   2.004       .  S
O239        C561   1.276       .  A
O240       Cu245   2.018       .  S
O240        C562   1.277       .  A
O241       Cu246   2.020       .  S
O241        C250   1.278   1_455  A
O242       Cu246   2.005       .  S
O242        C249   1.276   1_455  A
O243       Cu246   2.004       .  S
O243        C248   1.276   1_455  A
O244       Cu246   2.017       .  S
O244        C247   1.277   1_455  A
Cu245      Cu558   2.378       .  S
Cu246      Cu557   2.378   1_455  S
C247        O549   1.278       .  A
C247        C307   1.443       .  S
C248        O550   1.276       .  A
C248        C272   1.432       .  S
C249        O551   1.276       .  A
C249        C273   1.433       .  S
C250        O552   1.278       .  A
C250        C305   1.445   1_655  S
O251       Cu259   2.011       .  S
O251        C261   1.277       .  A
O252       Cu571   2.010       .  S
O252        C262   1.277       .  A
O253       Cu571   2.010       .  S
O253        C263   1.277       .  A
O254       Cu259   2.011       .  S
O254        C264   1.277       .  A
O255       Cu260   2.002   1_455  S
O256       Cu572   2.002       .  S
O257       Cu572   2.002       .  S
O258       Cu260   2.002   1_455  S
Cu259       O564   2.012   1_455  S
Cu259       O565   2.012   1_455  S
Cu260       O568   2.003       .  S
Cu260       O569   2.003       .  S
C261        C300   1.434       .  S
C262        C285   1.433       .  S
C263        C301   1.433       .  S
C264        C292   1.434       .  S
C265        C266   1.211       .  T
C266        C537   1.476       .  S
C267        C542   1.451       .  S
C267        C268   1.211       .  T
C269        C270   1.205       .  T
C270        C271   1.410       .  S
C271        C272   1.204       .  T
C273        C274   1.205       .  T
C274        C275   1.411       .  S
C275        C276   1.205       .  T
C277        C278   1.204       .  T
C278        C279   1.410       .  S
C279        C280   1.204       .  T
C281        C282   1.204       .  T
C282        C283   1.410       .  S
C283        C284   1.204       .  T
C285        C286   1.205       .  T
C286        C287   1.411       .  S
C287        C288   1.205       .  T
C289        C290   1.205       .  T
C290        C291   1.412       .  S
C291        C292   1.205       .  T
C293        C294   1.213       .  T
C295        C296   1.213       .  T
C297        C298   1.205       .  T
C298        C299   1.412       .  S
C299        C300   1.205       .  T
C301        C302   1.205       .  T
C302        C303   1.411       .  S
C303        C304   1.205       .  T
C305        C306   1.212       .  T
C307        C308   1.211       .  T
C308        C469   1.477       .  S
C309        C310   1.213       .  T
C311        C312   1.213       .  T
C313        C319   1.531   1_455  S
C313        C317   1.540       .  S
C314        H321   1.087       .  S
C314        C471   1.363       .  D
C315        C470   1.363       .  D
C315        C465   1.452   1_565  S
C316        C320   1.548   1_545  S
C316        H322   1.111       .  S
C317        H323   1.086       .  S
C318        C462   1.451       .  S
C319        H324   1.086       .  S
C319        C476   1.363       .  D
C320        C475   1.363       .  D
C320        C468   1.452   1_565  S
O325       Cu333   2.009       .  S
O325        C335   1.277       .  A
O326       Cu333   2.027       .  S
O326        C336   1.278       .  A
O327       Cu333   2.026       .  S
O327        C337   1.278       .  A
O328       Cu333   2.008       .  S
O328        C338   1.276       .  A
O329       Cu334   2.005       .  S
O329        C494   1.276       .  A
O330       Cu334   2.020       .  S
O330        C493   1.278       .  A
O331       Cu334   2.020       .  S
O331        C492   1.278       .  A
O332       Cu334   2.005       .  S
O332        C491   1.276       .  A
Cu333      Cu490   2.377   1_545  S
Cu334      Cu489   2.377       .  S
C335        O488   1.276   1_545  A
C335        C460   1.434       .  S
C336        O487   1.278   1_545  A
C336        C466   1.447       .  S
C337        O486   1.278   1_545  A
C337        C467   1.447       .  S
C338        O485   1.276   1_545  A
C338        C453   1.434       .  S
O339       Cu347   2.026       .  S
O339        C349   1.278       .  A
O340       Cu347   2.008       .  S
O340        C350   1.276       .  A
O341       Cu347   2.009       .  S
O341        C351   1.277       .  A
O342       Cu347   2.027       .  S
O342        C352   1.278       .  A
O343       Cu348   2.020       .  S
O343        C508   1.278       .  A
O344       Cu348   2.005       .  S
O344        C507   1.276       .  A
O345       Cu348   2.005       .  S
O345        C506   1.276       .  A
O346       Cu348   2.020       .  S
O346        C505   1.278       .  A
Cu347      Cu504   2.377   1_545  S
Cu348      Cu503   2.377       .  S
C349        O502   1.278   1_545  A
C349        C450   1.447       .  S
C350        O501   1.276   1_545  A
C350        C445   1.434       .  S
C351        O500   1.276   1_545  A
C351        C444   1.434       .  S
C352        O499   1.278   1_545  A
C352        C452   1.447       .  S
O353       Cu517   2.005   1_545  S
O353        C363   1.276       .  A
O354       Cu361   2.005   1_556  S
O355       Cu361   2.005       .  S
O355        C365   1.276       .  A
O356       Cu517   2.005   1_546  S
O357       Cu518   2.005   1_546  S
O357        C366   1.276       .  A
O358       Cu362   2.005       .  S
O359       Cu362   2.005   1_556  S
O359        C364   1.276       .  A
O360       Cu518   2.005   1_545  S
Cu361       O509   2.005       .  S
Cu361       O512   2.005   1_554  S
Cu362       O513   2.005   1_554  S
Cu362       O516   2.005       .  S
C363        C437   1.432       .  S
C364        C432   1.433       .  S
C365        C433   1.432       .  S
C366        C425   1.432       .  S
O367       Cu375   2.006       .  S
O368       Cu375   2.019       .  S
O369       Cu375   2.021       .  S
O370       Cu375   2.007       .  S
O371       Cu376   2.007       .  S
O371        C380   1.276       .  A
O372       Cu376   2.022       .  S
O372        C379   1.278       .  A
O373       Cu376   2.018       .  S
O373        C378   1.278       .  A
O374       Cu376   2.005       .  S
O374        C377   1.276       .  A
C377        C440   1.432       .  S
C378        C421   1.442       .  S
C379        C424   1.444       .  S
C380        C436   1.432       .  S
C381        C387   1.531       .  S
C381        C385   1.540       .  S
C382        H389   1.087       .  S
C382        C539   1.363       .  D
C383        C538   1.363       .  D
C383        C449   1.452   1_565  S
C384        C388   1.548   1_545  S
C384        C386   1.540       .  S
C384        H390   1.111       .  S
C385        H391   1.086       .  S
C385        C542   1.369       .  D
C386        C541   1.369   1_545  D
C387        H392   1.087       .  S
C387        C544   1.363       .  D
C388        C543   1.363       .  D
C388        C451   1.452   1_565  S
O393       Cu401   2.018       .  S
O394       Cu401   2.005       .  S
O395       Cu401   2.007       .  S
O396       Cu401   2.022       .  S
O397       Cu402   2.022       .  S
O397        C406   1.278       .  A
O398       Cu402   2.007       .  S
O398        C405   1.276       .  A
O399       Cu402   2.006       .  S
O399        C404   1.276       .  A
O400       Cu402   2.019       .  S
O400        C403   1.278       .  A
C403        C463   1.443       .  S
C404        C428   1.432       .  S
C405        C429   1.433       .  S
C406        C461   1.445       .  S
O407       Cu415   2.012       .  S
O407        C417   1.277       .  A
O408        C418   1.277       .  A
O409        C419   1.277       .  A
O410       Cu415   2.012       .  S
O410        C420   1.277       .  A
O411       Cu416   2.003       .  S
O411        C576   1.276       .  A
O412        C575   1.276       .  A
O413        C574   1.276       .  A
O414       Cu416   2.003       .  S
O414        C573   1.276       .  A
Cu415      Cu572   2.379       .  S
Cu416      Cu571   2.379       .  S
C417        O570   1.276       .  A
C417        C456   1.434       .  S
C418        O569   1.276       .  A
C418        C441   1.434       .  S
C419        O568   1.276       .  A
C419        C457   1.434       .  S
C420        O567   1.276       .  A
C420        C448   1.434       .  S
C421        C422   1.211   1_655  T
C423        C424   1.211       .  T
C425        C426   1.204       .  T
C426        C427   1.410       .  S
C427        C428   1.204       .  T
C429        C430   1.205       .  T
C430        C431   1.411       .  S
C431        C432   1.205       .  T
C433        C434   1.204       .  T
C434        C435   1.410       .  S
C435        C436   1.204       .  T
C437        C438   1.204       .  T
C438        C439   1.410       .  S
C439        C440   1.204       .  T
C441        C442   1.206       .  T
C442        C443   1.413       .  S
C443        C444   1.206       .  T
C445        C446   1.205       .  T
C446        C447   1.412       .  S
C447        C448   1.205       .  T
C449        C450   1.213       .  T
C451        C452   1.213       .  T
C453        C454   1.205       .  T
C454        C455   1.412       .  S
C455        C456   1.205       .  T
C457        C458   1.206       .  T
C458        C459   1.413       .  S
C459        C460   1.206       .  T
C461        C462   1.212       .  T
C463        C464   1.211       .  T
C465        C466   1.213       .  T
C467        C468   1.213       .  T
C469        C475   1.531       .  S
C469        C473   1.540       .  S
C470        H477   1.086       .  S
C471        C621   1.452       .  S
C472        C476   1.548   1_455  S
C472        H478   1.111       .  S
C473        H479   1.086       .  S
C474        C618   1.451       .  S
C475        H480   1.087       .  S
C476        C624   1.452       .  S
O481       Cu489   2.008       .  S
O481        C491   1.276       .  A
O482       Cu489   2.026       .  S
O482        C492   1.278       .  A
O483       Cu489   2.027       .  S
O483        C493   1.278       .  A
O484       Cu489   2.009       .  S
O484        C494   1.277       .  A
O485       Cu490   2.005       .  S
O486       Cu490   2.020       .  S
O487       Cu490   2.020       .  S
O488       Cu490   2.005       .  S
C491        C616   1.434       .  S
C492        C622   1.447       .  S
C493        C623   1.447       .  S
C494        C609   1.434       .  S
O495       Cu503   2.027       .  S
O495        C505   1.278       .  A
O496       Cu503   2.009       .  S
O496        C506   1.277       .  A
O497       Cu503   2.008       .  S
O497        C507   1.276       .  A
O498       Cu503   2.026       .  S
O498        C508   1.278       .  A
O499       Cu504   2.020       .  S
O500       Cu504   2.005       .  S
O501       Cu504   2.005       .  S
O502       Cu504   2.020       .  S
C505        C606   1.447       .  S
C506        C601   1.434       .  S
C507        C600   1.434       .  S
C508        C608   1.447       .  S
O509        C519   1.276       .  A
O510       Cu517   2.005   1_556  S
O511       Cu517   2.005       .  S
O511        C521   1.276       .  A
O513        C522   1.276       .  A
O514       Cu518   2.005       .  S
O515       Cu518   2.005   1_556  S
O515        C520   1.276       .  A
C519        C593   1.432       .  S
C520        C588   1.432       .  S
C521        C589   1.433       .  S
C522        C581   1.432       .  S
O523       Cu531   2.005       .  S
O524       Cu531   2.018       .  S
O525       Cu531   2.022       .  S
O526       Cu531   2.007       .  S
O527       Cu532   2.007       .  S
O527        C536   1.276       .  A
O528       Cu532   2.021       .  S
O528        C535   1.278       .  A
O529       Cu532   2.019       .  S
O529        C534   1.278       .  A
O530       Cu532   2.006       .  S
O530        C533   1.276       .  A
C533        C596   1.432       .  S
C534        C577   1.443       .  S
C535        C580   1.445   1_655  S
C536        C592   1.433       .  S
C537        C543   1.531       .  S
C537        C541   1.540       .  S
C538        H545   1.087       .  S
C539        C605   1.452       .  S
C540        C544   1.548       .  S
C540        C542   1.540       .  S
C540        H546   1.111       .  S
C541        H547   1.087       .  S
C543        H548   1.086       .  S
C544        C607   1.452       .  S
O549       Cu557   2.019       .  S
O550       Cu557   2.006       .  S
O551       Cu557   2.007       .  S
O552       Cu557   2.022       .  S
O553       Cu558   2.022       .  S
O553        C562   1.278       .  A
O554       Cu558   2.007       .  S
O554        C561   1.276       .  A
O555       Cu558   2.005       .  S
O555        C560   1.276       .  A
O556       Cu558   2.018       .  S
O556        C559   1.278       .  A
C559        C619   1.442       .  S
C560        C584   1.432       .  S
C561        C585   1.432       .  S
C562        C617   1.444       .  S
O563       Cu571   2.012       .  S
O563        C573   1.277       .  A
O564        C574   1.277       .  A
O565        C575   1.277       .  A
O566       Cu571   2.012       .  S
O566        C576   1.277       .  A
O567       Cu572   2.002       .  S
O570       Cu572   2.002       .  S
C573        C612   1.434       .  S
C574        C597   1.434       .  S
C575        C613   1.434       .  S
C576        C604   1.434       .  S
C577        C578   1.211       .  T
C579        C580   1.212       .  T
C581        C582   1.204       .  T
C582        C583   1.410       .  S
C583        C584   1.204       .  T
C585        C586   1.204       .  T
C586        C587   1.410       .  S
C587        C588   1.204       .  T
C589        C590   1.205       .  T
C590        C591   1.411       .  S
C591        C592   1.205       .  T
C593        C594   1.204       .  T
C594        C595   1.410       .  S
C595        C596   1.204       .  T
C597        C598   1.206       .  T
C598        C599   1.412       .  S
C599        C600   1.205       .  T
C601        C602   1.206       .  T
C602        C603   1.413       .  S
C603        C604   1.206       .  T
C605        C606   1.213       .  T
C607        C608   1.213       .  T
C609        C610   1.206       .  T
C610        C611   1.413       .  S
C611        C612   1.206       .  T
C613        C614   1.205       .  T
C614        C615   1.412       .  S
C615        C616   1.205       .  T
C617        C618   1.211       .  T
C619        C620   1.211       .  T
C621        C622   1.213       .  T
C623        C624   1.213       .  T
