geometry optimzed in LAMMPS
_audit_creation_date              2020-11-30 
_audit_creation_method            'lammps2cif' 
_symmetry_space_group_name_H-M    'P1' 
_symmetry_Int_Tables_number       1 
_symmetry_cell_setting            triclinic 
loop_ 
_symmetry_equiv_pos_as_xyz 
  x,y,z 
_cell_length_a                    63.94196632 
_cell_length_b                    64.91636481659056 
_cell_length_c                    64.40294512846674 
_cell_angle_alpha                 89.89990457003967 
_cell_angle_beta                  89.6210445252417 
_cell_angle_gamma                 89.9545585526956 
loop_ 
_atom_site_label 
_atom_site_type_symbol 
_atom_site_fract_x 
_atom_site_fract_y 
_atom_site_fract_z 
_atom_site_charge 
C1          C  0.25823462  0.84888685  0.98151604     0.79900
N2          N  0.25454014  0.86952734  0.98198030    -0.78400
C3          C  0.25224769  0.87957792  0.00034803     0.82300
N4          N  0.25386051  0.86878023  0.01832914    -0.78400
C5          C  0.25759539  0.84819152  0.01821024     0.82400
N6          N  0.25977463  0.83833121  0.99971981    -0.80100
C7          C  0.81159671  0.12009931  0.01806836     0.79900
N8          N  0.81080941  0.12856869  0.99885597    -0.78400
C9          C  0.81067789  0.11655641  0.98167186     0.82300
N10         N  0.81115797  0.09572562  0.98382309    -0.78400
C11         C  0.81165863  0.08696260  0.00304080     0.82400
N12         N  0.81201046  0.09927665  0.02008981    -0.80100
C13         C  0.93316303  0.99678983  0.30498256     0.79900
N14         N  0.92258418  0.97880595  0.30176035    -0.78400
C15         C  0.93309510  0.96049072  0.30103582     0.82300
N16         N  0.95418903  0.96046911  0.30323657    -0.78400
C17         C  0.96496063  0.97816747  0.30629663     0.82400
N18         N  0.95432344  0.99627197  0.30723101    -0.80100
C19         C  0.18701765  0.96474910  0.70901569     0.79900
N20         N  0.19779674  0.98256534  0.71105877    -0.78400
C21         C  0.18786889  0.00085566  0.71308475     0.82300
N22         N  0.16662103  0.00130395  0.71292164    -0.78400
C23         C  0.15538366  0.98361349  0.71067968     0.82400
N24         N  0.16571772  0.96528807  0.70890535    -0.80100
C25         C  0.09262728  0.67303833  0.12833457     0.79900
N26         N  0.07476813  0.67870486  0.13835659    -0.78400
C27         C  0.05682145  0.68221938  0.12767177     0.82300
N28         N  0.05690554  0.68000341  0.10664277    -0.78400
C29         C  0.07466362  0.67423470  0.09639533     0.82400
N30         N  0.09239959  0.67087398  0.10738667    -0.80100
C31         C  0.04391838  0.26720511  0.86889863     0.79900
N32         N  0.04518573  0.26977361  0.88979584    -0.78400
C33         C  0.06384759  0.27356546  0.89893366     0.82300
N34         N  0.08136126  0.27449626  0.88697605    -0.78400
C35         C  0.08041845  0.27197574  0.86609195     0.82400
N36         N  0.06159302  0.26841662  0.85707732    -0.80100
C37         C  0.82599687  0.86401935  0.01597578     0.79900
N38         N  0.82930233  0.85484395  0.99730888    -0.78400
C39         C  0.83101656  0.86615220  0.97965629     0.82300
N40         N  0.82937542  0.88695241  0.98080692    -0.78400
C41         C  0.82609895  0.89651714  0.99931459     0.82400
N42         N  0.82440722  0.88493817  0.01690433    -0.80100
C43         C  0.26839116  0.10193945  0.98014603     0.79900
N44         N  0.26835698  0.11145534  0.99891646    -0.78400
C45         C  0.26489838  0.10058952  0.01669992     0.82300
N46         N  0.26133047  0.07994383  0.01551779    -0.78400
C47         C  0.26129104  0.07018988  0.99681373     0.82400
N48         N  0.26494180  0.08132150  0.97926461    -0.80100
C49         C  0.92678681  0.96588950  0.70728846     0.79900
N50         N  0.94799112  0.96427222  0.70710276    -0.78400
C51         C  0.96021645  0.98141278  0.70698172     0.82300
N52         N  0.95098065  0.00029434  0.70714998    -0.78400
C53         C  0.92981568  0.00210697  0.70743986     0.82400
N54         N  0.91788031  0.98484789  0.70753675    -0.80100
C55         C  0.18978217  0.96564462  0.28763780     0.79900
N56         N  0.16882810  0.96640280  0.29139656    -0.78400
C57         C  0.15860586  0.98478731  0.29196180     0.82300
N58         N  0.16955303  0.00242299  0.28867859    -0.78400
C59         C  0.19045016  0.00194048  0.28489759     0.82400
N60         N  0.20044473  0.98348717  0.28439103    -0.80100
C61         C  0.04490743  0.68154785  0.87291840     0.79900
N62         N  0.06316499  0.68478419  0.86239762    -0.78400
C63         C  0.08183364  0.68364801  0.87245801     0.82300
N64         N  0.08203659  0.67945667  0.89312760    -0.78400
C65         C  0.06398985  0.67620152  0.90379206     0.82400
N66         N  0.04554261  0.67723842  0.89356008    -0.80100
C67         C  0.08728745  0.28285103  0.11899841     0.79900
N68         N  0.07033139  0.27755230  0.13074376    -0.78400
C69         C  0.05097799  0.27679523  0.12212499     0.82300
N70         N  0.04874519  0.28117022  0.10162777    -0.78400
C71         C  0.06553053  0.28625259  0.08971231     0.82400
N72         N  0.08471647  0.28707351  0.09852636    -0.80100
C73         C  0.43171191  0.46093503  0.76502441     0.79900
N74         N  0.45286557  0.46074559  0.76653406    -0.78400
C75         C  0.46367754  0.47837102  0.77021738     0.82300
N76         N  0.45303478  0.49646121  0.77224971    -0.78400
C77         C  0.43177822  0.49684314  0.77086844     0.82400
N78         N  0.42132684  0.47900826  0.76729287    -0.80100
C79         C  0.43650081  0.46215764  0.23721314     0.79900
N80         N  0.45751203  0.46166480  0.23417932    -0.78400
C81         C  0.46873644  0.47935605  0.23242680     0.82300
N82         N  0.45865495  0.49779928  0.23382246    -0.78400
C83         C  0.43756528  0.49852590  0.23686337     0.82400
N84         N  0.42668093  0.48063320  0.23850480    -0.80100
C85         C  0.35146463  0.35500977  0.51478175     0.79900
N86         N  0.35438571  0.37566949  0.51611588    -0.78400
C87         C  0.35672960  0.38737764  0.49874625     0.82300
N88         N  0.35622204  0.37814422  0.47979538    -0.78400
C89         C  0.35329427  0.35744624  0.47820372     0.82400
N90         N  0.35087536  0.34604989  0.49577268    -0.80100
Zr91       Zr  0.28562040  0.20353006  0.76374674     2.17500
O92         O  0.25013373  0.19071323  0.75875818    -0.51700
O93         O  0.28935748  0.18908657  0.79857413    -0.74900
O94         O  0.28524423  0.16725752  0.75515485    -0.81700
O95         O  0.26269122  0.25578744  0.77826647    -0.83400
O96         O  0.31357943  0.15963490  0.73513542    -0.79000
O97         O  0.25669898  0.22130239  0.78006451    -0.90700
O98         O  0.32277297  0.19515325  0.80847204    -0.76600
O99         O  0.32121037  0.19323086  0.76573240    -0.86100
O100        O  0.30254292  0.22983532  0.78298238    -0.85800
O101        O  0.29732981  0.20093552  0.72821929    -0.72600
O102        O  0.28016607  0.23464321  0.74426876    -0.84700
Zr103      Zr  0.34577873  0.24855127  0.73103549     2.26400
Zr104      Zr  0.33353310  0.19130649  0.73062783     2.06300
Zr105      Zr  0.29767074  0.26090793  0.76363192     2.10000
Zr106      Zr  0.33817676  0.21968436  0.78466760     1.78800
O107        O  0.27584577  0.28835068  0.74974719    -0.93500
O108        O  0.36614268  0.19480907  0.79022848    -0.41300
O109        O  0.33373912  0.25143339  0.76621254    -0.77900
O110        O  0.35154557  0.21726519  0.75000073    -0.96600
O111        O  0.32902730  0.22247654  0.71135028    -0.89900
O112        O  0.31019552  0.25880787  0.72868535    -0.92800
C113        C  0.30467788  0.18712296  0.81125052     1.01000
C114        C  0.25137978  0.24009790  0.78319298     1.13900
C115        C  0.29647669  0.15469968  0.74450289     1.04700
O116        O  0.35803827  0.16659427  0.74524696    -0.94900
O117        O  0.36680553  0.19648517  0.71243615    -0.90700
O118        O  0.37360348  0.23081503  0.71279384    -0.83800
C119        C  0.37829213  0.21219262  0.70804373     1.11300
O120        O  0.25981509  0.21915529  0.69819674    -0.96900
Zr121      Zr  0.29345057  0.23262171  0.70936044     1.88900
O122        O  0.34287014  0.26307301  0.69666364    -0.73600
O123        O  0.33090305  0.17343199  0.69750748    -0.52800
O124        O  0.29585650  0.21285551  0.67732166    -0.97500
O125        O  0.26784310  0.25971834  0.70310481    -0.54700
O126        O  0.31135281  0.25392867  0.68365794    -0.74100
C127        C  0.32905771  0.26320834  0.68234873     0.98300
O128        O  0.37988622  0.26322470  0.73901647    -0.62900
O129        O  0.29876250  0.27540084  0.79846259    -0.57700
O130        O  0.34584677  0.28502999  0.73841632    -0.94400
O131        O  0.31814136  0.29250194  0.75941555    -0.92800
O132        O  0.33443177  0.23610992  0.81845842    -0.93200
O133        O  0.36957070  0.23804496  0.79514926    -0.91900
C134        C  0.33468151  0.29761604  0.74911544     1.17100
H135        H  0.29654514  0.23109093  0.79674054     0.33100
H136        H  0.36630313  0.21418559  0.75058110     0.43900
H137        H  0.30881261  0.27198760  0.72186625     0.37400
H138        H  0.28954028  0.19039711  0.72107669     0.33900
H139        H  0.36862242  0.19512388  0.80538433     0.25700
H140        H  0.33178274  0.18446878  0.68691220     0.31600
H141        H  0.29483963  0.19827441  0.68172695     0.37600
H142        H  0.34182765  0.22685888  0.82821225     0.32000
H143        H  0.31368165  0.27871488  0.80074596     0.30900
H144        H  0.27121875  0.29627593  0.76206752     0.32600
H145        H  0.27616995  0.27202577  0.69930288     0.31500
H146        H  0.37989431  0.23525829  0.78397694     0.35500
H147        H  0.38846247  0.25154603  0.74403254     0.28300
H148        H  0.24867316  0.17870062  0.76815826     0.32500
H149        H  0.25452781  0.21121295  0.71026873     0.35400
H150        H  0.29178788  0.28896424  0.79721449     0.28000
H151        H  0.38610719  0.26704926  0.72542272     0.40800
H152        H  0.36263527  0.15812694  0.73328445     0.30900
H153        H  0.35956518  0.18123598  0.78775910     0.38500
H154        H  0.26200188  0.26295305  0.71699614     0.30400
H155        H  0.34422621  0.16577175  0.69602249     0.30400
H156        H  0.24996150  0.18488524  0.74456258     0.30700
C157        C  0.82624643  0.36421361  0.47478786     0.79900
N158        N  0.82433416  0.35544046  0.49379949    -0.78400
C159        C  0.82330525  0.36712868  0.51120793     0.82300
N160        N  0.82420461  0.38798682  0.50947093    -0.78400
C161        C  0.82623600  0.39704322  0.49046762     0.82400
N162        N  0.82716914  0.38503158  0.47323256    -0.80100
C163        C  0.58329766  0.18062237  0.61549492     0.79900
N164        N  0.58275962  0.17512028  0.59510607    -0.78400
C165        C  0.56426351  0.17172541  0.58547319     0.82300
N166        N  0.54627081  0.17375568  0.59644841    -0.78400
C167        C  0.54638161  0.17908277  0.61678532     0.82400
N168        N  0.56498664  0.18264505  0.62629049    -0.80100
Zr169      Zr  0.83966741  0.21187765  0.76142452     2.17500
O170        O  0.87259350  0.19293487  0.76395173    -0.51700
O171        O  0.83094266  0.19645937  0.79489843    -0.74900
O172        O  0.86731678  0.23025864  0.77949131    -0.81700
O173        O  0.81719250  0.17085185  0.72436966    -0.83400
O174        O  0.86017297  0.26447798  0.78055171    -0.79000
O175        O  0.84388914  0.17784235  0.74636054    -0.90700
O176        O  0.79852023  0.20709770  0.80441055    -0.76600
O177        O  0.82026422  0.23730737  0.77979797    -0.86100
O178        O  0.80392837  0.20197333  0.75869498    -0.85800
O179        O  0.84768988  0.24369256  0.74393585    -0.72600
O180        O  0.83232580  0.21109296  0.72493063    -0.84700
Zr181      Zr  0.78381141  0.25930025  0.72375381     2.26400
Zr182      Zr  0.82743598  0.26912518  0.76223159     2.06300
Zr183      Zr  0.79625237  0.20187442  0.72238131     2.10000
Zr184      Zr  0.78453461  0.22770470  0.77666559     1.78800
O185        O  0.80165871  0.18982412  0.68690571    -0.93500
O186        O  0.78056904  0.25014193  0.80672118    -0.41300
O187        O  0.77601444  0.22714612  0.74059339    -0.77900
O188        O  0.79121032  0.25998206  0.76024559    -0.96600
O189        O  0.81958053  0.26905501  0.72599905    -0.89900
O190        O  0.80299736  0.23382502  0.70498678    -0.92800
C191        C  0.81539195  0.19699000  0.80760145     1.01000
C192        C  0.83413316  0.16598371  0.73375677     1.13900
C193        C  0.87181110  0.24885522  0.78453732     1.04700
O194        O  0.82275873  0.28180335  0.79750893    -0.94900
O195        O  0.80717161  0.30074558  0.75904890    -0.90700
O196        O  0.78076270  0.29439865  0.73651922    -0.83800
C197        C  0.79071516  0.30618672  0.74904841     1.11300
O198        O  0.87233600  0.22750836  0.69928447    -0.96900
Zr199      Zr  0.83880921  0.24328607  0.70795770     1.88900
O200        O  0.79237104  0.27554735  0.69073193    -0.73600
O201        O  0.85047081  0.29679246  0.75070218    -0.52800
O202        O  0.86798980  0.26739581  0.70724036    -0.97500
O203        O  0.83991280  0.22647031  0.67412790    -0.54700
O204        O  0.82676205  0.26965988  0.68436025    -0.74100
C205        C  0.80924367  0.27829746  0.68018849     0.98300
O206        O  0.75063997  0.27796335  0.72370470    -0.62900
O207        O  0.77434534  0.17277198  0.73239724    -0.57700
O208        O  0.75529649  0.24084191  0.70724899    -0.94400
O209        O  0.76231658  0.20659559  0.70653528    -0.92800
O210        O  0.76040910  0.19953144  0.78390789    -0.93200
O211        O  0.74809166  0.23848833  0.77892046    -0.91900
C212        C  0.75051546  0.22214837  0.70288845     1.17100
H213        H  0.80156197  0.18848372  0.76464705     0.33100
H214        H  0.78257497  0.27001715  0.76731463     0.43900
H215        H  0.79851709  0.23326689  0.69070024     0.37400
H216        H  0.86245073  0.24672196  0.74454444     0.33900
H217        H  0.77003051  0.24320559  0.81562482     0.25700
H218        H  0.85380152  0.30455492  0.76347702     0.31600
H219        H  0.87135562  0.26925035  0.69232336     0.37600
H220        H  0.75572703  0.20176488  0.79842517     0.32000
H221        H  0.76287696  0.17890560  0.74074378     0.30900
H222        H  0.78799966  0.19136042  0.67993120     0.32600
H223        H  0.82689057  0.23061207  0.66701561     0.31500
H224        H  0.74623504  0.24803723  0.76706684     0.35500
H225        H  0.74611935  0.27863999  0.70904025     0.28300
H226        H  0.87580840  0.19202440  0.77895171     0.32500
H227        H  0.87116598  0.21312352  0.70429362     0.35400
H228        H  0.76760279  0.16820544  0.71939699     0.28000
H229        H  0.74038381  0.26887276  0.73076709     0.40800
H230        H  0.83077395  0.29483602  0.79790110     0.30900
H231        H  0.79384666  0.24866686  0.81441196     0.38500
H232        H  0.83801469  0.21163920  0.67719886     0.30400
H233        H  0.86372795  0.28987593  0.74680311     0.30400
H234        H  0.88351993  0.20199880  0.75792644     0.30700
C235        C  0.37406471  0.60833602  0.51996696     0.79900
N236        N  0.37513869  0.58746017  0.51866625    -0.78400
C237        C  0.37496360  0.57790277  0.49992114     0.82300
N238        N  0.37339889  0.58944690  0.48240296    -0.78400
C239        C  0.37217707  0.61031382  0.48338049     0.82400
N240        N  0.37258803  0.61967865  0.50223854    -0.80100
Zr241      Zr  0.34560512  0.71482303  0.73092455     2.17500
O242        O  0.38231072  0.70882191  0.73907427    -0.51700
O243        O  0.34451353  0.69832712  0.69717977    -0.74900
O244        O  0.35202417  0.67937274  0.74081412    -0.81700
O245        O  0.35811711  0.76912700  0.71215208    -0.83400
O246        O  0.32679005  0.66900777  0.76352741    -0.79000
O247        O  0.37126038  0.73661239  0.71409692    -0.90700
O248        O  0.31060064  0.69750323  0.68694813    -0.76600
O249        O  0.31245362  0.69833297  0.73089764    -0.86100
O250        O  0.32389979  0.73606709  0.71000618    -0.85800
O251        O  0.33518420  0.71268968  0.76665358    -0.72600
O252        O  0.34539035  0.74788083  0.74723003    -0.84700
Zr253      Zr  0.27914146  0.75110619  0.76224574     2.26400
Zr254      Zr  0.30127679  0.69694493  0.76635357     2.06300
Zr255      Zr  0.32289192  0.76895584  0.72670308     2.10000
Zr256      Zr  0.29070099  0.71966807  0.71023318     1.78800
O257        O  0.34043710  0.80027338  0.73786992    -0.93500
O258        O  0.26982069  0.68877303  0.70453730    -0.41300
O259        O  0.28936580  0.75285892  0.72646580    -0.77900
O260        O  0.27872046  0.71800439  0.74562282    -0.96600
O261        O  0.30083022  0.72983795  0.78312144    -0.89900
O262        O  0.31233330  0.76743543  0.76224356    -0.92800
C263        C  0.33000410  0.69283427  0.68467267     1.01000
C264        C  0.37268004  0.75574458  0.70919897     1.13900
C265        C  0.34379726  0.66605310  0.75313682     1.04700
O266        O  0.28056837  0.66836383  0.75321446    -0.94900
O267        O  0.26820874  0.69783369  0.78564239    -0.90700
O268        O  0.25548659  0.73039734  0.78270048    -0.83800
C269        C  0.25429489  0.71175777  0.78916214     1.11300
O270        O  0.37135443  0.74164673  0.78969888    -0.96900
Zr271      Zr  0.33421811  0.74587951  0.78262245     1.88900
O272        O  0.28099243  0.76891161  0.79540535    -0.73600
O273        O  0.30776412  0.68193573  0.80041088    -0.52800
O274        O  0.33991135  0.72446988  0.81317090    -0.97500
O275        O  0.35320670  0.77770413  0.78940824    -0.54700
O276        O  0.31359529  0.76415101  0.80827556    -0.74100
C277        C  0.29490697  0.77123931  0.80951237     0.98300
O278        O  0.24275747  0.75883395  0.75411621    -0.62900
O279        O  0.31828982  0.78039294  0.69099347    -0.57700
O280        O  0.27085753  0.78562210  0.75095046    -0.94400
O281        O  0.29632837  0.79608509  0.72855799    -0.92800
O282        O  0.29054785  0.73775918  0.67708098    -0.93200
O283        O  0.25513091  0.72887296  0.70041442    -0.91900
C284        C  0.27901438  0.79885459  0.73850625     1.17100
H285        H  0.32939792  0.73732493  0.69609962     0.33100
H286        H  0.26469808  0.71247011  0.74580485     0.43900
H287        H  0.31145025  0.78114401  0.76800757     0.37400
H288        H  0.34491355  0.70418184  0.77423163     0.33900
H289        H  0.25685521  0.69069568  0.71279944     0.25700
H290        H  0.30256753  0.69232789  0.81043792     0.31600
H291        H  0.33699239  0.73358885  0.82514511     0.37600
H292        H  0.28376420  0.72810801  0.66733401     0.32000
H293        H  0.30297711  0.78009335  0.68881190     0.30900
H294        H  0.33692797  0.81067480  0.72718581     0.32600
H295        H  0.34244472  0.78867106  0.78962670     0.31500
H296        H  0.25112276  0.74008123  0.71005957     0.35500
H297        H  0.23626060  0.74541911  0.75072993     0.28300
H298        H  0.38657028  0.69646515  0.73111327     0.32500
H299        H  0.37813051  0.74145040  0.77582758     0.35400
H300        H  0.32189139  0.79521978  0.69117791     0.28000
H301        H  0.23622060  0.76306388  0.76742207     0.40800
H302        H  0.28821013  0.65578050  0.75742079     0.30900
H303        H  0.26530897  0.68966774  0.68987870     0.38500
H304        H  0.36130863  0.78036146  0.77652281     0.30400
H305        H  0.29773580  0.67037067  0.80157786     0.30400
H306        H  0.38236474  0.70441785  0.75380925     0.30700
C307        C  0.68979479  0.46590110  0.78329123     0.79900
N308        N  0.70044088  0.48399134  0.78398613    -0.78400
C309        C  0.69012193  0.50222522  0.78530679     0.82300
N310        N  0.66891061  0.50226567  0.78571963    -0.78400
C311        C  0.65793226  0.48439541  0.78493310     0.82400
N312        N  0.66849061  0.46621247  0.78372167    -0.80100
C313        C  0.58098573  0.77267231  0.62383897     0.79900
N314        N  0.56356264  0.77529188  0.63571255    -0.78400
C315        C  0.54511172  0.78084170  0.62691201     0.82300
N316        N  0.54429052  0.78388426  0.60601615    -0.78400
C317        C  0.56164858  0.78138611  0.59397378     0.82400
N318        N  0.57985756  0.77565327  0.60302709    -0.80100
C319        C  0.79806052  0.61798611  0.47605241     0.79900
N320        N  0.79359438  0.62721551  0.49451241    -0.78400
C321        C  0.79226920  0.61593562  0.51223204     0.82300
N322        N  0.79529648  0.59532374  0.51133569    -0.78400
C323        C  0.79960979  0.58575580  0.49313247     0.82400
N324        N  0.80112820  0.59719712  0.47545601    -0.80100
Zr325      Zr  0.78358222  0.70941447  0.73145485     2.17500
O326        O  0.74943202  0.69314274  0.73578845    -0.51700
O327        O  0.78945897  0.69531273  0.69697497    -0.74900
O328        O  0.75633076  0.72746580  0.71274872    -0.81700
O329        O  0.80719036  0.66743709  0.76577176    -0.83400
O330        O  0.76343014  0.76175843  0.71277944    -0.79000
O331        O  0.78078892  0.67395167  0.74324427    -0.90700
O332        O  0.82218288  0.70476820  0.68706795    -0.76600
O333        O  0.80229081  0.73528558  0.71288255    -0.86100
O334        O  0.81931459  0.69898354  0.73230328    -0.85800
O335        O  0.77660476  0.74101822  0.74962419    -0.72600
O336        O  0.79261898  0.70778837  0.76741650    -0.84700
Zr337      Zr  0.84120415  0.75517425  0.76814791     2.26400
Zr338      Zr  0.79637044  0.76684895  0.73122184     2.06300
Zr339      Zr  0.82871103  0.69811503  0.76827453     2.10000
Zr340      Zr  0.83792891  0.72508234  0.71408979     1.78800
O341        O  0.82338736  0.68681595  0.80398143    -0.93500
O342        O  0.84004236  0.74613759  0.68273241    -0.41300
O343        O  0.84830693  0.72378648  0.74974430    -0.77900
O344        O  0.83252702  0.75694886  0.73193221    -0.96600
O345        O  0.80559840  0.76572227  0.76724850    -0.89900
O346        O  0.82253572  0.72941249  0.78677229    -0.92800
C347        C  0.80474732  0.69563747  0.68397284     1.01000
C348        C  0.79061852  0.66218441  0.75594662     1.13900
C349        C  0.75190685  0.74619083  0.70810802     1.04700
O350        O  0.80167992  0.78119628  0.69661842    -0.94900
O351        O  0.81711627  0.79831504  0.73516033    -0.90700
O352        O  0.84315534  0.79081624  0.75776826    -0.83800
C353        C  0.83351005  0.80316539  0.74558374     1.11300
O354        O  0.75105892  0.72976567  0.79376863    -0.96900
Zr355      Zr  0.78682849  0.73961089  0.78523610     1.88900
O356        O  0.83508284  0.76838404  0.80316297    -0.73600
O357        O  0.77288805  0.79435150  0.74229168    -0.52800
O358        O  0.76409243  0.76966686  0.78729787    -0.97500
O359        O  0.78112418  0.71744769  0.81532244    -0.54700
O360        O  0.80256128  0.75859659  0.81332136    -0.74100
C361        C  0.82005627  0.76762284  0.81650300     0.98300
O362        O  0.87426687  0.77389359  0.76619497    -0.62900
O363        O  0.85132633  0.66883451  0.76035453    -0.57700
O364        O  0.87034464  0.73642505  0.78302728    -0.94400
O365        O  0.86311021  0.70224863  0.78371166    -0.92800
O366        O  0.86213616  0.69636450  0.71008303    -0.93200
O367        O  0.87318787  0.73594695  0.70470443    -0.91900
C368        C  0.87511592  0.71768921  0.78724385     1.17100
H369        H  0.82127854  0.68564165  0.72593623     0.33100
H370        H  0.84108276  0.76719719  0.72505812     0.43900
H371        H  0.82740996  0.72810447  0.80088800     0.37400
H372        H  0.76183489  0.74418029  0.74935203     0.33900
H373        H  0.82549086  0.74695495  0.67762708     0.25700
H374        H  0.76928240  0.80175637  0.72934172     0.31600
H375        H  0.76610868  0.77521619  0.80144601     0.37600
H376        H  0.86311299  0.69408379  0.69490725     0.32000
H377        H  0.84424952  0.66131405  0.74904467     0.30900
H378        H  0.83497237  0.67704926  0.80660704     0.32600
H379        H  0.79343186  0.71967344  0.82428511     0.31500
H380        H  0.87899989  0.74165593  0.71768273     0.35500
H381        H  0.87926694  0.77504553  0.78066823     0.28300
H382        H  0.74420342  0.69059411  0.72158451     0.32500
H383        H  0.74747228  0.71919656  0.78331628     0.35400
H384        H  0.86385997  0.67487883  0.75361076     0.28000
H385        H  0.88431520  0.76456683  0.75916439     0.40800
H386        H  0.79773870  0.79589656  0.69788040     0.30900
H387        H  0.84315998  0.76025651  0.68759313     0.38500
H388        H  0.78293380  0.70326658  0.80995905     0.30400
H389        H  0.75980096  0.78729867  0.74648292     0.30400
H390        H  0.74016091  0.70396310  0.74157022     0.30700
C391        C  0.54661518  0.17619481  0.36554942     0.79900
N392        N  0.56362540  0.18166389  0.35412895    -0.78400
C393        C  0.58289021  0.18240312  0.36279802     0.82300
N394        N  0.58501534  0.17786869  0.38328225    -0.78400
C395        C  0.56812483  0.17238597  0.39496973     0.82400
N396        N  0.54896415  0.17151483  0.38596945    -0.80100
Zr397      Zr  0.79502179  0.25616641  0.27262419     2.17500
O398        O  0.78389326  0.28574992  0.29334793    -0.51700
O399        O  0.76017795  0.24358917  0.28084462    -0.74900
O400        O  0.77938804  0.28412175  0.25237491    -0.81700
O401        O  0.82683586  0.23516243  0.31889888    -0.83400
O402        O  0.78700211  0.27972269  0.21819514    -0.79000
O403        O  0.80307089  0.25936451  0.30926718    -0.90700
O404        O  0.75604657  0.21211568  0.26634304    -0.76600
O405        O  0.78500624  0.23862989  0.24179539    -0.86100
O406        O  0.79840582  0.22041822  0.28054022    -0.85800
O407        O  0.81911754  0.26812394  0.24648009    -0.72600
O408        O  0.83100482  0.25060938  0.28150406    -0.84700
Zr409      Zr  0.84871224  0.20822387  0.23174522     2.26400
Zr410      Zr  0.80963389  0.24965362  0.21573792     2.06300
Zr411      Zr  0.83451537  0.21453535  0.28851741     2.10000
Zr412      Zr  0.78879291  0.20295874  0.24969277     1.78800
O413        O  0.86721272  0.21523206  0.30767873    -0.93500
O414        O  0.76234281  0.19871467  0.22296055    -0.41300
O415        O  0.82462276  0.19663209  0.25786345    -0.77900
O416        O  0.81246426  0.21336674  0.22274749    -0.96600
O417        O  0.84562894  0.24398070  0.22402026    -0.89900
O418        O  0.85889628  0.22573411  0.26247803    -0.92800
C419        C  0.74937863  0.22741134  0.27706042     1.01000
C420        C  0.81495385  0.25067326  0.32269877     1.13900
C421        C  0.77854850  0.28975308  0.23324328     1.04700
O422        O  0.78212553  0.24569173  0.19008120    -0.94900
O423        O  0.82120236  0.23273731  0.18406809    -0.90700
O424        O  0.84310289  0.20731216  0.19453975    -0.83800
C425        C  0.83303552  0.21713702  0.18049315     1.11300
O426        O  0.85418109  0.29442215  0.27308495    -0.96900
Zr427      Zr  0.85481057  0.26150213  0.25503701     1.88900
O428        O  0.88421685  0.22052989  0.22554969    -0.73600
O429        O  0.82729820  0.27690084  0.19641726    -0.52800
O430        O  0.86105977  0.29141810  0.23298061    -0.97500
O431        O  0.88168102  0.26342533  0.28161571    -0.54700
O432        O  0.88612758  0.25388425  0.23554680    -0.74100
C433        C  0.89379378  0.23783403  0.22685766     0.98300
O434        O  0.86557846  0.17888865  0.21480256    -0.62900
O435        O  0.81754363  0.19261785  0.31432394    -0.57700
O436        O  0.85765174  0.17656218  0.25036192    -0.94400
O437        O  0.85086013  0.18073028  0.28473049    -0.92800
O438        O  0.78351916  0.17496001  0.27445271    -0.93200
O439        O  0.79009634  0.16931079  0.23310835    -0.91900
C440        C  0.85754047  0.17003400  0.26925046     1.17100
H441        H  0.78966163  0.21650472  0.29218105     0.33100
H442        H  0.80854749  0.20534219  0.21079055     0.43900
H443        H  0.87314335  0.22231893  0.26627515     0.37400
H444        H  0.81792436  0.28281804  0.24444751     0.33900
H445        H  0.75209458  0.20988329  0.22550258     0.25700
H446        H  0.81763238  0.28029420  0.18496223     0.31600
H447        H  0.86446763  0.28567550  0.21913409     0.37600
H448        H  0.77035521  0.17823698  0.28191748     0.32000
H449        H  0.81284603  0.18038731  0.30647653     0.30900
H450        H  0.86514970  0.20526880  0.31916445     0.32600
H451        H  0.89323905  0.25458591  0.27651310     0.31500
H452        H  0.80465229  0.16809217  0.22788932     0.35500
H453        H  0.85467811  0.17210122  0.20637667     0.28300
H454        H  0.76884443  0.28777636  0.29040583     0.32500
H455        H  0.83959792  0.29582526  0.27817012     0.35400
H456        H  0.82906940  0.18747070  0.32311837     0.28000
H457        H  0.87554298  0.18483333  0.20459198     0.40800
H458        H  0.76889122  0.24723193  0.19798280     0.30900
H459        H  0.76943186  0.20275633  0.20986408     0.38500
H460        H  0.87574095  0.25580440  0.29360115     0.30400
H461        H  0.82669474  0.28907525  0.20564153     0.30400
H462        H  0.79103356  0.29790852  0.28728734     0.30700
C463        C  0.54411373  0.78301223  0.37066172     0.79900
N464        N  0.56126915  0.77863030  0.35894108    -0.78400
C465        C  0.58033296  0.77602813  0.36772859     0.82300
N466        N  0.58211673  0.77776493  0.38871522    -0.78400
C467        C  0.56505683  0.78215762  0.40074244     0.82400
N468        N  0.54613258  0.78472457  0.39156144    -0.80100
C469        C  0.69599341  0.49819778  0.21504205     0.79900
N470        N  0.67475444  0.49945555  0.21518007    -0.78400
C471        C  0.66281395  0.48223743  0.21641990     0.82300
N472        N  0.67235042  0.46362367  0.21740724    -0.78400
C473        C  0.69352024  0.46189657  0.21723428     0.82400
N474        N  0.70537921  0.47932358  0.21615121    -0.80100
Zr475      Zr  0.84133272  0.75543818  0.22033097     2.17500
O476        O  0.84900315  0.78652922  0.20031868    -0.51700
O477        O  0.87586549  0.74281339  0.20942128    -0.74900
O478        O  0.85863663  0.78241708  0.24041242    -0.81700
O479        O  0.80750136  0.73608454  0.17477448    -0.83400
O480        O  0.85069461  0.77861180  0.27459869    -0.79000
O481        O  0.83199482  0.75954539  0.18420696    -0.90700
O482        O  0.88006071  0.71054389  0.22220717    -0.76600
O483        O  0.85294690  0.73735056  0.25026740    -0.86100
O484        O  0.83762348  0.71992635  0.21177765    -0.85800
O485        O  0.81808978  0.76655302  0.24767594    -0.72600
O486        O  0.80486738  0.75015528  0.21318554    -0.84700
Zr487      Zr  0.78981408  0.70650612  0.26299856     2.26400
Zr488      Zr  0.82951042  0.74761851  0.27762118     2.06300
Zr489      Zr  0.80119981  0.71443514  0.20524151     2.10000
Zr490      Zr  0.84883544  0.70188050  0.24192193     1.78800
O491        O  0.76967700  0.71622728  0.18429095    -0.93500
O492        O  0.87727865  0.69953516  0.26681779    -0.41300
O493        O  0.81257462  0.69588270  0.23522028    -0.77900
O494        O  0.82636101  0.71149425  0.27027954    -0.96600
O495        O  0.79316031  0.74203089  0.27096885    -0.89900
O496        O  0.77795875  0.72428341  0.23289950    -0.92800
C497        C  0.88648385  0.72611474  0.21168018     1.01000
C498        C  0.81957018  0.75150040  0.17092332     1.13900
C499        C  0.85944599  0.78827384  0.25945639     1.04700
O500        O  0.86005940  0.74177186  0.29927703    -0.94900
O501        O  0.81866944  0.73060328  0.30955490    -0.90700
O502        O  0.79349008  0.70765606  0.30054046    -0.83800
C503        C  0.80488878  0.71687097  0.31395602     1.11300
O504        O  0.77897538  0.79252669  0.22251581    -0.96900
Zr505      Zr  0.78186265  0.75984474  0.24084011     1.88900
O506        O  0.75461942  0.71824656  0.27230086    -0.73600
O507        O  0.81405621  0.77343220  0.30043291    -0.52800
O508        O  0.77684732  0.78878049  0.26436501    -0.97500
O509        O  0.75362502  0.76169480  0.21565644    -0.54700
O510        O  0.75110851  0.75117759  0.26110963    -0.74100
C511        C  0.74441588  0.73527358  0.27089492     0.98300
O512        O  0.78244367  0.67354635  0.27982330    -0.62900
O513        O  0.81805425  0.69056604  0.18122815    -0.57700
O514        O  0.77613644  0.67728282  0.24380846    -0.94400
O515        O  0.78194052  0.68232354  0.20932879    -0.92800
O516        O  0.85403351  0.67320678  0.21807798    -0.93200
O517        O  0.84923564  0.66858716  0.25938347    -0.91900
C518        C  0.77496593  0.67166229  0.22472005     1.17100
H519        H  0.84575990  0.71628963  0.19963709     0.33100
H520        H  0.83039596  0.70337069  0.28217379     0.43900
H521        H  0.76366343  0.72074282  0.22973148     0.37400
H522        H  0.81931507  0.78120815  0.24986033     0.33900
H523        H  0.88743179  0.71024542  0.26248542     0.25700
H524        H  0.82566552  0.77798699  0.30942067     0.31600
H525        H  0.77302689  0.78244543  0.27786424     0.37600
H526        H  0.86916059  0.67002498  0.21881234     0.32000
H527        H  0.81972459  0.67766451  0.18927640     0.30900
H528        H  0.77203029  0.70619039  0.17295094     0.32600
H529        H  0.74294803  0.75175174  0.22057491     0.31500
H530        H  0.83427896  0.66509843  0.26137443     0.35500
H531        H  0.79508562  0.67013242  0.28794315     0.28300
H532        H  0.86422911  0.78891259  0.20164507     0.32500
H533        H  0.79175341  0.79323346  0.21377750     0.35400
H534        H  0.80718658  0.68732135  0.17085895     0.28000
H535        H  0.77139176  0.67636818  0.29028931     0.40800
H536        H  0.86299199  0.75523685  0.30583689     0.30900
H537        H  0.87124734  0.70481310  0.27996484     0.38500
H538        H  0.75950071  0.75537792  0.20291098     0.30400
H539        H  0.81125257  0.78539061  0.29130666     0.30400
H540        H  0.84223093  0.79801153  0.20792562     0.30700
Zr541      Zr  0.28192299  0.75122592  0.23523799     2.17500
O542        O  0.24413440  0.75567162  0.23849128    -0.51700
O543        O  0.28452929  0.76835765  0.20168735    -0.74900
O544        O  0.27207944  0.78534016  0.24737708    -0.81700
O545        O  0.27255150  0.69615358  0.21658175    -0.83400
O546        O  0.29681065  0.79693668  0.26964175    -0.79000
O547        O  0.25924808  0.72866733  0.21582273    -0.90700
O548        O  0.31868551  0.76769501  0.19187833    -0.76600
O549        O  0.31440779  0.76903254  0.23650815    -0.86100
O550        O  0.30572239  0.73064901  0.21564265    -0.85800
O551        O  0.29030003  0.75310198  0.27147053    -0.72600
O552        O  0.28233285  0.71812531  0.25183491    -0.84700
Zr553      Zr  0.34820227  0.71738998  0.27000420     2.26400
Zr554      Zr  0.32342629  0.77038455  0.27251977     2.06300
Zr555      Zr  0.30691774  0.69781920  0.23255912     2.10000
Zr556      Zr  0.33822542  0.74817589  0.21730433     1.78800
O557        O  0.28942904  0.66543275  0.24062714    -0.93500
O558        O  0.35761763  0.78018823  0.21261157    -0.41300
O559        O  0.33991908  0.71506389  0.23376163    -0.77900
O560        O  0.34799300  0.75033348  0.25306955    -0.96600
O561        O  0.32420834  0.73763882  0.28953045    -0.89900
O562        O  0.31579989  0.69948514  0.26850537    -0.92800
C563        C  0.29949608  0.77262750  0.18900752     1.01000
C564        C  0.25850449  0.70938639  0.21154528     1.13900
C565        C  0.27940259  0.79881335  0.25996008     1.04700
O566        O  0.34337991  0.80032435  0.26117152    -0.94900
O567        O  0.35596376  0.77127151  0.29210507    -0.90700
O568        O  0.37001904  0.73916113  0.29108823    -0.83800
C569        C  0.37023291  0.75809403  0.29670729     1.11300
O570        O  0.25474994  0.72553771  0.29524861    -0.96900
Zr571      Zr  0.29173747  0.71994342  0.28764719     1.88900
O572        O  0.34586637  0.70082762  0.30400171    -0.73600
O573        O  0.31452621  0.78490526  0.30631259    -0.52800
O574        O  0.28510474  0.73784568  0.32027498    -0.97500
O575        O  0.27258165  0.68748724  0.28902420    -0.54700
O576        O  0.31158940  0.70108424  0.31341497    -0.74100
C577        C  0.33081647  0.69641020  0.31658017     0.98300
O578        O  0.38559646  0.71248903  0.26339026    -0.62900
O579        O  0.31489112  0.68628486  0.19739714    -0.57700
O580        O  0.35756227  0.68289331  0.25967637    -0.94400
O581        O  0.33403965  0.67152732  0.23602973    -0.92800
O582        O  0.34283669  0.73035875  0.18434275    -0.93200
O583        O  0.37504763  0.74161028  0.20999324    -0.91900
C584        C  0.35073850  0.66941311  0.24688163     1.17100
H585        H  0.30116804  0.72921141  0.20145787     0.33100
H586        H  0.36172881  0.75650005  0.25379997     0.43900
H587        H  0.31697293  0.68582241  0.27437957     0.37400
H588        H  0.27982348  0.76102488  0.27884256     0.33900
H589        H  0.34733920  0.79121262  0.21564587     0.25700
H590        H  0.31462085  0.77299973  0.31593735     0.31600
H591        H  0.28521087  0.72698063  0.33108164     0.37600
H592        H  0.35011199  0.74041633  0.17525301     0.32000
H593        H  0.31073409  0.67159173  0.19730384     0.30900
H594        H  0.29569712  0.66069155  0.25380935     0.32600
H595        H  0.28317532  0.67687062  0.29231574     0.31500
H596        H  0.38102903  0.73764775  0.22356337     0.35500
H597        H  0.38660061  0.70642516  0.24931971     0.28300
H598        H  0.24064365  0.76805034  0.23019554     0.32500
H599        H  0.25152912  0.71685566  0.30751763     0.35400
H600        H  0.30445846  0.69317801  0.18846369     0.28000
H601        H  0.39148106  0.72647700  0.26150788     0.40800
H602        H  0.33983807  0.81118267  0.27138365     0.30900
H603        H  0.36750842  0.78072249  0.22435812     0.38500
H604        H  0.26867559  0.68469488  0.27444507     0.30400
H605        H  0.32680938  0.79323048  0.31034738     0.30400
H606        H  0.24157443  0.75967839  0.25312170     0.30700
Zr607      Zr  0.34359456  0.25183184  0.26471995     2.17500
O608        O  0.37934041  0.26429071  0.26052260    -0.51700
O609        O  0.33751401  0.26495281  0.29972633    -0.74900
O610        O  0.34396068  0.28854294  0.25773969    -0.81700
O611        O  0.36408681  0.19973089  0.28102115    -0.83400
O612        O  0.31910384  0.29622855  0.23390612    -0.79000
O613        O  0.37099980  0.23397910  0.28304230    -0.90700
O614        O  0.30463684  0.25598494  0.30961471    -0.76600
O615        O  0.30812337  0.26259359  0.26358723    -0.86100
O616        O  0.32445618  0.22598340  0.28282002    -0.85800
O617        O  0.33573567  0.25424840  0.22832495    -0.72600
O618        O  0.35028792  0.22050460  0.24597156    -0.84700
Zr619      Zr  0.28571162  0.20794508  0.22710697     2.26400
Zr620      Zr  0.29976981  0.26461511  0.22750018     2.06300
Zr621      Zr  0.33035966  0.19496455  0.26400643     2.10000
Zr622      Zr  0.28895629  0.23660750  0.28149644     1.78800
O623        O  0.35245413  0.16576991  0.25461134    -0.93500
O624        O  0.26505411  0.26452676  0.29037389    -0.41300
O625        O  0.29425745  0.20494667  0.26325511    -0.77900
O626        O  0.27935100  0.23936867  0.24569255    -0.96600
O627        O  0.30526322  0.23326273  0.20881720    -0.89900
O628        O  0.32117739  0.19666836  0.22805579    -0.92800
C629        C  0.32234781  0.26462815  0.31293727     1.01000
C630        C  0.37555800  0.21504845  0.28651456     1.13900
C631        C  0.33430749  0.30121488  0.24583780     1.04700
O632        O  0.27523901  0.29121780  0.23843313    -0.94900
O633        O  0.26792062  0.26090914  0.20744824    -0.90700
O634        O  0.25952661  0.22692801  0.20765125    -0.83800
C635        C  0.25605770  0.24575474  0.20249939     1.11300
O636        O  0.37636371  0.23382697  0.20339641    -0.96900
Zr637      Zr  0.34066838  0.22226638  0.21006972     1.88900
O638        O  0.29266451  0.19257651  0.19354154    -0.73600
O639        O  0.30635427  0.27920255  0.19320991    -0.52800
O640        O  0.34297171  0.24381068  0.17912511    -0.97500
O641        O  0.36499017  0.19362387  0.20558893    -0.54700
O642        O  0.32510682  0.20171327  0.18252451    -0.74100
C643        C  0.30749158  0.19254006  0.18004531     0.98300
O644        O  0.24946837  0.19617485  0.22641073    -0.62900
O645        O  0.32503337  0.18094298  0.29872844    -0.57700
O646        O  0.28183360  0.17253442  0.23846579    -0.94400
O647        O  0.30894722  0.16458396  0.25961487    -0.92800
O648        O  0.28553681  0.21326547  0.31099659    -0.93200
O649        O  0.25276998  0.22523452  0.28438790    -0.91900
C650        C  0.29197453  0.16006199  0.25014524     1.17100
H651        H  0.32920384  0.22442371  0.29694885     0.33100
H652        H  0.26469410  0.24292066  0.24512015     0.43900
H653        H  0.32276746  0.18331952  0.22167687     0.37400
H654        H  0.34442728  0.26463701  0.22188358     0.33900
H655        H  0.26277008  0.26319939  0.30554475     0.25700
H656        H  0.29820237  0.29217332  0.19300379     0.31600
H657        H  0.32848341  0.24457904  0.17384875     0.37600
H658        H  0.29707097  0.21699037  0.32045747     0.32000
H659        H  0.30986183  0.17799366  0.29959957     0.30900
H660        H  0.36660740  0.17155292  0.25237579     0.32600
H661        H  0.35615350  0.18134356  0.20324476     0.31500
H662        H  0.25197553  0.21300120  0.27525721     0.35500
H663        H  0.24933830  0.18427826  0.21679810     0.28300
H664        H  0.38081314  0.27565381  0.27064328     0.32500
H665        H  0.37998054  0.22863985  0.18936963     0.35400
H666        H  0.33173643  0.16719313  0.29826819     0.28000
H667        H  0.24650383  0.19028900  0.24031199     0.40800
H668        H  0.26402060  0.28367264  0.24589120     0.30900
H669        H  0.27345477  0.27724240  0.28875177     0.38500
H670        H  0.37103777  0.19143709  0.21952875     0.30400
H671        H  0.32114879  0.28367150  0.19341866     0.30400
H672        H  0.37974409  0.27103910  0.24672545     0.30700
C673        C  0.70847459  0.51745269  0.21447570    -0.03500
C674        C  0.72902792  0.51799023  0.22203679    -0.06100
C675        C  0.73993497  0.53667333  0.22307321    -0.21200
C676        C  0.73070907  0.55507901  0.21616899     0.24500
C677        C  0.71033270  0.55444545  0.20814695    -0.18800
C678        C  0.69934549  0.53587247  0.20738581    -0.08800
C679        C  0.74188429  0.57489415  0.21920843    -0.19000
C680        C  0.73855894  0.59174135  0.20741906    -0.23800
C681        C  0.74822706  0.61199675  0.21202094     0.26600
C682        C  0.75287786  0.62562384  0.19570234    -0.20600
C683        C  0.76156156  0.64499440  0.19974742    -0.10200
C684        C  0.76534968  0.65131087  0.22028176    -0.10800
C685        C  0.76027218  0.63774259  0.23661597    -0.03700
C686        C  0.75184120  0.61832619  0.23254133    -0.18800
H687        H  0.73641539  0.50411369  0.22779447     0.10300
H688        H  0.75553379  0.53680464  0.22953339     0.10300
H689        H  0.70248664  0.56837505  0.20321167     0.10000
H690        H  0.68351533  0.53601098  0.20150798     0.11100
H691        H  0.75333123  0.57556592  0.23157881     0.11200
H692        H  0.72880063  0.59064460  0.19373061     0.13100
H693        H  0.74997665  0.62117979  0.17977409     0.09600
H694        H  0.76524076  0.65503137  0.18678361     0.11700
H695        H  0.76288629  0.64205898  0.25262048     0.08300
H696        H  0.74778940  0.60845148  0.24551497     0.11100
C697        C  0.38852070  0.76500786  0.30886959    -0.03500
C698        C  0.39030865  0.78545668  0.31587226    -0.06100
C699        C  0.40822847  0.79187531  0.32647209    -0.21200
C700        C  0.42475264  0.77808298  0.32984504     0.24500
C701        C  0.42268256  0.75753084  0.32344178    -0.18800
C702        C  0.40483669  0.75108644  0.31305717    -0.08800
C703        C  0.44431044  0.78514869  0.33972519    -0.19000
C704        C  0.46295044  0.77855011  0.33257868    -0.23800
C705        C  0.48338050  0.78298000  0.34229844     0.26600
C706        C  0.50148624  0.77958851  0.33040967    -0.20600
C707        C  0.52119323  0.78047520  0.33946407    -0.10200
C708        C  0.52328698  0.78458652  0.36076286    -0.10800
C709        C  0.50519257  0.78895825  0.37253504    -0.03700
C710        C  0.48538592  0.78817072  0.36339219    -0.18800
H711        H  0.37801226  0.79654479  0.31294691     0.10300
H712        H  0.40947110  0.80774550  0.33147206     0.10300
H713        H  0.43494946  0.74640900  0.32639576     0.10000
H714        H  0.40401447  0.73518462  0.30807098     0.11100
H715        H  0.44333774  0.79621013  0.35230809     0.11200
H716        H  0.46329747  0.76907909  0.31866705     0.13100
H717        H  0.50035505  0.77556784  0.31413243     0.09600
H718        H  0.53473701  0.77717304  0.32985155     0.11700
H719        H  0.50625545  0.79230229  0.38896028     0.08300
H720        H  0.47174980  0.79060951  0.37311041     0.11100
C721        C  0.59876593  0.77102354  0.35437905    -0.03500
C722        C  0.59631893  0.76828058  0.33284176    -0.06100
C723        C  0.61351824  0.76382633  0.32008507    -0.21200
C724        C  0.63358414  0.76170413  0.32848119     0.24500
C725        C  0.63613651  0.76439449  0.35001140    -0.18800
C726        C  0.61891543  0.76901751  0.36280452    -0.08800
C727        C  0.65157492  0.75773321  0.31420283    -0.19000
C728        C  0.66883287  0.74724543  0.31988625    -0.23800
C729        C  0.68706277  0.74349061  0.30580498     0.26600
C730        C  0.70030953  0.72668873  0.30980296    -0.20600
C731        C  0.71842782  0.72344580  0.29788990    -0.10200
C732        C  0.72394460  0.73717625  0.28187104    -0.10800
C733        C  0.71048513  0.75383150  0.27762927    -0.03700
C734        C  0.69225785  0.75694285  0.28940411    -0.18800
H735        H  0.58108249  0.76965265  0.32573064     0.10300
H736        H  0.61111596  0.76194392  0.30356015     0.10300
H737        H  0.65147772  0.76342675  0.35694032     0.10000
H738        H  0.62143504  0.77118705  0.37926432     0.11100
H739        H  0.65002275  0.76281014  0.29821642     0.11200
H740        H  0.66940899  0.74047850  0.33530536     0.13100
H741        H  0.69676944  0.71616208  0.32240947     0.09600
H742        H  0.72850330  0.71059609  0.30173709     0.11700
H743        H  0.71427534  0.76478356  0.26547112     0.08300
H744        H  0.68275907  0.77033794  0.28610832     0.11100
C745        C  0.76833251  0.30978198  0.22843969    -0.03500
C746        C  0.77356360  0.32057840  0.21016168    -0.06100
C747        C  0.76603671  0.34056533  0.20674391    -0.21200
C748        C  0.75275835  0.35010512  0.22126583     0.24500
C749        C  0.74711234  0.33912234  0.23934685    -0.18800
C750        C  0.75485028  0.31923915  0.24289439    -0.08800
C751        C  0.74584607  0.37177755  0.21760887    -0.19000
C752        C  0.72770084  0.37924704  0.22523459    -0.23800
C753        C  0.71991336  0.40069809  0.22219253     0.26600
C754        C  0.69859566  0.40436491  0.22573215    -0.20600
C755        C  0.69027750  0.42412991  0.22399014    -0.10200
C756        C  0.70306412  0.44102617  0.21883535    -0.10800
C757        C  0.72453670  0.43752059  0.21536245    -0.03700
C758        C  0.73290703  0.41751840  0.21697282    -0.18800
H759        H  0.78413265  0.31388712  0.19882117     0.10300
H760        H  0.77075126  0.34868003  0.19276870     0.10300
H761        H  0.73734514  0.34608692  0.25118451     0.10000
H762        H  0.75061958  0.31143447  0.25719230     0.11100
H763        H  0.75554519  0.38141290  0.20769388     0.11200
H764        H  0.71734512  0.36879114  0.23352180     0.13100
H765        H  0.68822684  0.39181484  0.22992678     0.09600
H766        H  0.67371006  0.42612838  0.22693793     0.11700
H767        H  0.73483698  0.45018907  0.21141593     0.08300
H768        H  0.74952392  0.41541565  0.21455517     0.11100
C769        C  0.60122798  0.18848205  0.35004243    -0.03500
C770        C  0.59869571  0.19399681  0.32906661    -0.06100
C771        C  0.61589550  0.19980861  0.31696917    -0.21200
C772        C  0.63589199  0.20056671  0.32564059     0.24500
C773        C  0.63856992  0.19486484  0.34652193    -0.18800
C774        C  0.62139388  0.18885359  0.35860368    -0.08800
C775        C  0.65387017  0.20623311  0.31229502    -0.19000
C776        C  0.67043886  0.21664496  0.31953217    -0.23800
C777        C  0.68941820  0.22051540  0.30683884     0.26600
C778        C  0.70211761  0.23747808  0.31144703    -0.20600
C779        C  0.72122432  0.24026915  0.30114494    -0.10200
C780        C  0.72813598  0.22590851  0.28625666    -0.10800
C781        C  0.71509972  0.20922714  0.28129237    -0.03700
C782        C  0.69596614  0.20655078  0.29145787    -0.18800
H783        H  0.58341346  0.19382965  0.32192872     0.10300
H784        H  0.61355893  0.20391377  0.30083669     0.10300
H785        H  0.65397120  0.19465137  0.35340591     0.10000
H786        H  0.62394716  0.18444117  0.37461063     0.11100
H787        H  0.65313969  0.20216261  0.29596604     0.11200
H788        H  0.67010936  0.22255743  0.33530785     0.13100
H789        H  0.69741634  0.24837564  0.32331827     0.09600
H790        H  0.73088045  0.25328226  0.30537129     0.11700
H791        H  0.71993021  0.19785116  0.26995225     0.08300
H792        H  0.68682560  0.19300702  0.28788762     0.11100
C793        C  0.52563666  0.17645007  0.35602650    -0.03500
C794        C  0.50888338  0.16564231  0.36512709    -0.06100
C795        C  0.48884944  0.16686424  0.35660202    -0.21200
C796        C  0.48511468  0.17932473  0.33920296     0.24500
C797        C  0.50199777  0.18957995  0.32968091    -0.18800
C798        C  0.52206164  0.18808163  0.33796305    -0.08800
C799        C  0.46350542  0.18151172  0.33130181    -0.19000
C800        C  0.45641555  0.19949400  0.32360160    -0.23800
C801        C  0.43498274  0.20276191  0.31540860     0.26600
C802        C  0.42798973  0.22305364  0.31254418    -0.20600
C803        C  0.40855884  0.22702038  0.30360158    -0.10200
C804        C  0.39560946  0.21073110  0.29719758    -0.10800
C805        C  0.40244544  0.19038779  0.30038523    -0.03700
C806        C  0.42192446  0.18642169  0.30933777    -0.18800
H807        H  0.51123875  0.15633802  0.37888922     0.10300
H808        H  0.47611308  0.15857281  0.36397872     0.10300
H809        H  0.49971430  0.19878224  0.31584199     0.10000
H810        H  0.53467376  0.19647270  0.33049421     0.11100
H811        H  0.45304460  0.16849248  0.33316774     0.11200
H812        H  0.46672101  0.21279794  0.32380845     0.13100
H813        H  0.43772601  0.23593967  0.31701525     0.09600
H814        H  0.40386183  0.24290699  0.30142458     0.11700
H815        H  0.39294463  0.17748016  0.29554873     0.08300
H816        H  0.42684970  0.17056369  0.31082466     0.11100
C817        C  0.78867643  0.62588286  0.53257119    -0.03500
C818        C  0.78228865  0.64655982  0.53395647    -0.06100
C819        C  0.78009478  0.65601555  0.55335026    -0.21200
C820        C  0.78464750  0.64509024  0.57156867     0.24500
C821        C  0.79034055  0.62424606  0.57023428    -0.18800
C822        C  0.79227874  0.61473983  0.55095111    -0.08800
C823        C  0.78395673  0.65581056  0.59177770    -0.19000
C824        C  0.79814015  0.65184182  0.60654755    -0.23800
C825        C  0.79916987  0.66344044  0.62619307     0.26600
C826        C  0.81879165  0.66673215  0.63509421    -0.20600
C827        C  0.82050228  0.67742095  0.65372780    -0.10200
C828        C  0.80253994  0.68458954  0.66412435    -0.10800
C829        C  0.78280244  0.68111911  0.65534322    -0.03700
C830        C  0.78112672  0.67071775  0.63641680    -0.18800
H831        H  0.77920292  0.65547694  0.52008432     0.10300
H832        H  0.77550725  0.67206509  0.55410637     0.10300
H833        H  0.79340355  0.61529574  0.58409078     0.10000
H834        H  0.79707668  0.59874419  0.55048136     0.11100
H835        H  0.77290930  0.66837876  0.59379385     0.11200
H836        H  0.81057845  0.64082455  0.60343641     0.13100
H837        H  0.83286869  0.66117021  0.62749719     0.09600
H838        H  0.83591588  0.67979589  0.66017567     0.11700
H839        H  0.76873053  0.68657157  0.66301341     0.08300
H840        H  0.76575305  0.66803342  0.63002969     0.11100
C841        C  0.80019013  0.63066449  0.45697193    -0.03500
C842        C  0.80966421  0.62254896  0.43900712    -0.06100
C843        C  0.81251846  0.63485516  0.42137228    -0.21200
C844        C  0.80554914  0.65534584  0.42114513     0.24500
C845        C  0.79589283  0.66346844  0.43899674    -0.18800
C846        C  0.79332829  0.65127622  0.45675194    -0.08800
C847        C  0.80900996  0.66798752  0.40225191    -0.19000
C848        C  0.79524936  0.68227475  0.39578908    -0.23800
C849        C  0.79783127  0.69313826  0.37569759     0.26600
C850        C  0.78022027  0.69650148  0.36329081    -0.20600
C851        C  0.78244564  0.70482103  0.34337684    -0.10200
C852        C  0.80226637  0.71052986  0.33580931    -0.10800
C853        C  0.81972530  0.70845734  0.34875108    -0.03700
C854        C  0.81756856  0.69962402  0.36848221    -0.18800
H855        H  0.81521522  0.60678964  0.43867164     0.10300
H856        H  0.82005753  0.62830677  0.40779015     0.10300
H857        H  0.79072954  0.67935044  0.43941229     0.10000
H858        H  0.78601567  0.65804621  0.47033546     0.11100
H859        H  0.82239216  0.66423085  0.39247485     0.11200
H860        H  0.78069063  0.68445675  0.40429771     0.13100
H861        H  0.76484285  0.69183878  0.36866158     0.09600
H862        H  0.76872814  0.70646592  0.33372423     0.11700
H863        H  0.83515491  0.71277816  0.34324262     0.08300
H864        H  0.83133504  0.69763243  0.37798014     0.11100
C865        C  0.56059642  0.78360448  0.57106969    -0.03500
C866        C  0.54235731  0.79077624  0.56137371    -0.06100
C867        C  0.54119855  0.79176832  0.53969802    -0.21200
C868        C  0.55821593  0.78570702  0.52719998     0.24500
C869        C  0.57652412  0.77865397  0.53695161    -0.18800
C870        C  0.57771231  0.77775383  0.55858338    -0.08800
C871        C  0.55581774  0.78607559  0.50418573    -0.19000
C872        C  0.57199696  0.78542228  0.49061640    -0.23800
C873        C  0.56965510  0.78504991  0.46759965     0.26600
C874        C  0.58672518  0.77852530  0.45543212    -0.20600
C875        C  0.58534909  0.77775825  0.43377465    -0.10200
C876        C  0.56682290  0.78355595  0.42370394    -0.10800
C877        C  0.54982554  0.79043565  0.43584506    -0.03700
C878        C  0.55122903  0.79127673  0.45750222    -0.18800
H879        H  0.52888523  0.79543504  0.57050255     0.10300
H880        H  0.52686594  0.79717604  0.53265038     0.10300
H881        H  0.58982171  0.77321235  0.52809955     0.10000
H882        H  0.59195911  0.77197515  0.56549041     0.11100
H883        H  0.53995604  0.78679386  0.49840639     0.11200
H884        H  0.58785100  0.78476075  0.49641868     0.13100
H885        H  0.60116792  0.77378092  0.46273515     0.09600
H886        H  0.59875644  0.77240047  0.42495502     0.11700
H887        H  0.53538476  0.79527724  0.42861911     0.08300
H888        H  0.53791054  0.79707794  0.46609443     0.11100
C889        C  0.60088379  0.76594020  0.63324429    -0.03500
C890        C  0.61611661  0.75595050  0.62105137    -0.06100
C891        C  0.63519323  0.75002204  0.62966435    -0.21200
C892        C  0.63962652  0.75440752  0.65047173     0.24500
C893        C  0.62419776  0.76389895  0.66285997    -0.18800
C894        C  0.60494803  0.76950852  0.65433855    -0.08800
C895        C  0.66049687  0.74906900  0.65880535    -0.19000
C896        C  0.67026589  0.76106719  0.67271139    -0.23800
C897        C  0.69166151  0.75682961  0.68035910     0.26600
C898        C  0.70437019  0.77344449  0.68610348    -0.20600
C899        C  0.72425469  0.77007217  0.69436579    -0.10200
C900        C  0.73172257  0.74992928  0.69741170    -0.10800
C901        C  0.71902070  0.73326432  0.69137743    -0.03700
C902        C  0.69922178  0.73666783  0.68292630    -0.18800
H903        H  0.61328519  0.75268806  0.60482454     0.10300
H904        H  0.64673960  0.74248548  0.61990743     0.10300
H905        H  0.62696821  0.76693584  0.67913314     0.10000
H906        H  0.59342521  0.77700720  0.66414434     0.11100
H907        H  0.66869130  0.73601134  0.65204778     0.11200
H908        H  0.66286038  0.77529844  0.67772921     0.13100
H909        H  0.69882788  0.78911482  0.68429067     0.09600
H910        H  0.73353529  0.78325521  0.69886173     0.11700
H911        H  0.72416974  0.71751933  0.69357936     0.08300
H912        H  0.68962295  0.72350795  0.67906606     0.11100
C913        C  0.70176197  0.52193557  0.78498684    -0.03500
C914        C  0.69124703  0.54068988  0.78822807    -0.06100
C915        C  0.70185502  0.55938936  0.78624349    -0.21200
C916        C  0.72318784  0.55980900  0.78102286     0.24500
C917        C  0.73386845  0.54102163  0.77831226    -0.18800
C918        C  0.72327176  0.52230486  0.78037687    -0.08800
C919        C  0.73317897  0.58006029  0.77688344    -0.19000
C920        C  0.75399599  0.58308490  0.77618697    -0.23800
C921        C  0.76333470  0.60321977  0.77048355     0.26600
C922        C  0.78262641  0.60885892  0.77896148    -0.20600
C923        C  0.79172510  0.62782081  0.77396034    -0.10200
C924        C  0.78181765  0.64142768  0.76010332    -0.10800
C925        C  0.76280498  0.63540759  0.75108822    -0.03700
C926        C  0.75366168  0.61652742  0.75621618    -0.18800
H927        H  0.67470017  0.54097475  0.79191180     0.10300
H928        H  0.69324162  0.57361612  0.78838460     0.10300
H929        H  0.75016749  0.54059437  0.77378492     0.10000
H930        H  0.73182076  0.50814618  0.77766253     0.11100
H931        H  0.72283735  0.59310972  0.77440716     0.11200
H932        H  0.76459895  0.57081233  0.78060254     0.13100
H933        H  0.79048279  0.59872605  0.78978804     0.09600
H934        H  0.80639642  0.63190412  0.78117023     0.11700
H935        H  0.75479916  0.64538884  0.74024018     0.08300
H936        H  0.73913081  0.61231235  0.74882502     0.11100
C937        C  0.39255693  0.76273742  0.69959392    -0.03500
C938        C  0.39449124  0.78268637  0.69125194    -0.06100
C939        C  0.41318488  0.78896145  0.68178676    -0.21200
C940        C  0.43040319  0.77559276  0.68082175     0.24500
C941        C  0.42849876  0.75566469  0.68920798    -0.18800
C942        C  0.40982727  0.74934482  0.69852346    -0.08800
C943        C  0.44974277  0.78226337  0.66991731    -0.19000
C944        C  0.46872249  0.77486351  0.67494188    -0.23800
C945        C  0.48816222  0.77902301  0.66292159     0.26600
C946        C  0.50741340  0.77420697  0.67205995    -0.20600
C947        C  0.52599819  0.77561678  0.66064082    -0.10200
C948        C  0.52574057  0.78171478  0.63968421    -0.10800
C949        C  0.50653116  0.78718621  0.63070366    -0.03700
C950        C  0.48792881  0.78580592  0.64215112    -0.18800
H951        H  0.38148798  0.79337299  0.69178551     0.10300
H952        H  0.41421875  0.80430290  0.67521899     0.10300
H953        H  0.44120393  0.74469003  0.68811952     0.10000
H954        H  0.40891631  0.73385871  0.70474707     0.11100
H955        H  0.44817967  0.79366574  0.65769581     0.11200
H956        H  0.47016234  0.76503682  0.68852692     0.13100
H957        H  0.50803544  0.76882054  0.68797794     0.09600
H958        H  0.54047793  0.77125661  0.66808843     0.11700
H959        H  0.50574287  0.79191705  0.61459639     0.08300
H960        H  0.47343079  0.78921553  0.63432201     0.11100
C961        C  0.36962700  0.62252187  0.46405036    -0.03500
C962        C  0.37204061  0.64406366  0.46397364    -0.06100
C963        C  0.36934222  0.65536976  0.44561272    -0.21200
C964        C  0.36381637  0.64543569  0.42708682     0.24500
C965        C  0.36160894  0.62388774  0.42715528    -0.18800
C966        C  0.36449909  0.61259852  0.44538187    -0.08800
C967        C  0.36090632  0.65769918  0.40777221    -0.19000
C968        C  0.34741571  0.65199536  0.39288287    -0.23800
C969        C  0.34378462  0.66404575  0.37365736     0.26600
C970        C  0.32357606  0.66448119  0.36542060    -0.20600
C971        C  0.31947334  0.67508870  0.34702791    -0.10200
C972        C  0.33562508  0.68513474  0.33607932    -0.10800
C973        C  0.35603045  0.68442272  0.34414394    -0.03700
C974        C  0.36005517  0.67409231  0.36287462    -0.18800
H975        H  0.37610620  0.65217587  0.47805878     0.10300
H976        H  0.37131304  0.67193765  0.44593037     0.10300
H977        H  0.35796894  0.61562364  0.41305913     0.10000
H978        H  0.36256724  0.59603872  0.44482370     0.11100
H979        H  0.36918876  0.67223754  0.40626486     0.11200
H980        H  0.33750387  0.63863660  0.39543184     0.13100
H981        H  0.31084309  0.65669889  0.37336306     0.09600
H982        H  0.30360365  0.67520670  0.34125716     0.11700
H983        H  0.36881911  0.69197870  0.33608460     0.08300
H984        H  0.37590500  0.67359216  0.36866804     0.11100
C985        C  0.33614174  0.68025395  0.66647133    -0.03500
C986        C  0.32161855  0.66723414  0.65680056    -0.06100
C987        C  0.32766023  0.65505131  0.63990201    -0.21200
C988        C  0.34814906  0.65600832  0.63201516     0.24500
C989        C  0.36271574  0.66896071  0.64172386    -0.18800
C990        C  0.35677168  0.68089730  0.65881567    -0.08800
C991        C  0.35373342  0.64337251  0.61362933    -0.19000
C992        C  0.36791137  0.64944418  0.59934406    -0.23800
C993        C  0.37094121  0.63835388  0.57946121     0.26600
C994        C  0.37500865  0.64976889  0.56138715    -0.20600
C995        C  0.37619713  0.64002503  0.54208489    -0.10200
C996        C  0.37379171  0.61856048  0.54053570    -0.10800
C997        C  0.37068261  0.60701817  0.55881514    -0.03700
C998        C  0.36921661  0.61681803  0.57808894    -0.18800
H999        H  0.30566269  0.66626094  0.66246681     0.10300
H1000       H  0.31620383  0.64508215  0.63274912     0.10300
H1001       H  0.37876243  0.66971253  0.63633310     0.10000
H1002       H  0.36831133  0.69076859  0.66595960     0.11100
H1003       H  0.34437939  0.62973114  0.61070317     0.11200
H1004       H  0.37571328  0.66418526  0.60110340     0.13100
H1005       H  0.37657711  0.66636728  0.56212061     0.09600
H1006       H  0.37882202  0.64935122  0.52835896     0.11700
H1007       H  0.36894178  0.59043884  0.55821445     0.08300
H1008       H  0.36664708  0.60755542  0.59186554     0.11100
C1009       C  0.70137670  0.44619844  0.78091717    -0.03500
C1010       C  0.69076470  0.42726604  0.78122755    -0.06100
C1011       C  0.70157473  0.40884626  0.77777618    -0.21200
C1012       C  0.72323121  0.40883266  0.77394563     0.24500
C1013       C  0.73394592  0.42777141  0.77395914    -0.18800
C1014       C  0.72314405  0.44619176  0.77750633    -0.08800
C1015       C  0.73358036  0.38886778  0.76893074    -0.19000
C1016       C  0.75444569  0.38590105  0.76798871    -0.23800
C1017       C  0.76386909  0.36572497  0.76231035     0.26600
C1018       C  0.78346952  0.36030743  0.77033808    -0.20600
C1019       C  0.79242883  0.34115285  0.76575812    -0.10200
C1020       C  0.78207824  0.32711080  0.75277236    -0.10800
C1021       C  0.76281765  0.33293058  0.74407903    -0.03700
C1022       C  0.75383236  0.35199758  0.74876508    -0.18800
H1023       H  0.67403453  0.42666034  0.78386547     0.10300
H1024       H  0.69288488  0.39452646  0.77782116     0.10300
H1025       H  0.75051217  0.42865975  0.77069122     0.10000
H1026       H  0.73184117  0.46049456  0.77706744     0.11100
H1027       H  0.72334726  0.37581654  0.76623158     0.11200
H1028       H  0.76505516  0.39812885  0.77237821     0.13100
H1029       H  0.79165992  0.37074338  0.78056170     0.09600
H1030       H  0.80733753  0.33725941  0.77261664     0.11700
H1031       H  0.75446434  0.32263664  0.73385087     0.08300
H1032       H  0.73909035  0.35596736  0.74163333     0.11100
C1033       C  0.56343500  0.16640794  0.56312680    -0.03500
C1034       C  0.54417125  0.16638243  0.55271274    -0.06100
C1035       C  0.54332578  0.16276195  0.53139329    -0.21200
C1036       C  0.56166375  0.15911904  0.51990620     0.24500
C1037       C  0.58085215  0.15799190  0.53049510    -0.18800
C1038       C  0.58171911  0.16175592  0.55186386    -0.08800
C1039       C  0.55996484  0.15742770  0.49694629    -0.19000
C1040       C  0.57613477  0.16049607  0.48376264    -0.23800
C1041       C  0.57391587  0.16214611  0.46081684     0.26600
C1042       C  0.59036310  0.17104312  0.44937342    -0.20600
C1043       C  0.58867056  0.17403944  0.42796146    -0.10200
C1044       C  0.57041169  0.16822607  0.41746536    -0.10800
C1045       C  0.55414409  0.15883988  0.42877865    -0.03700
C1046       C  0.55591181  0.15565977  0.45016563    -0.18800
H1047       H  0.52971616  0.16969731  0.56090630     0.10300
H1048       H  0.52830030  0.16345194  0.52373942     0.10300
H1049       H  0.59526736  0.15435607  0.52245026     0.10000
H1050       H  0.59674057  0.16120580  0.55951217     0.11100
H1051       H  0.54433100  0.15559970  0.49084198     0.11200
H1052       H  0.59149389  0.16374838  0.48996858     0.13100
H1053       H  0.60445667  0.17609235  0.45709691     0.09600
H1054       H  0.60151109  0.18132142  0.41972810     0.11700
H1055       H  0.53998719  0.15392048  0.42110106     0.08300
H1056       H  0.54310651  0.14810039  0.45809513     0.11100
C1057       C  0.60374274  0.18422985  0.62569793    -0.03500
C1058       C  0.62247623  0.17944352  0.61520044    -0.06100
C1059       C  0.64179647  0.18270441  0.62459873    -0.21200
C1060       C  0.64297859  0.19103313  0.64462162     0.24500
C1061       C  0.62427617  0.19576492  0.65527369    -0.18800
C1062       C  0.60486423  0.19237719  0.64589126    -0.08800
C1063       C  0.66400328  0.19388208  0.65390466    -0.19000
C1064       C  0.66810454  0.20736560  0.66919678    -0.23800
C1065       C  0.68948918  0.21070619  0.67743730     0.26600
C1066       C  0.69439700  0.22991263  0.68604183    -0.20600
C1067       C  0.71432636  0.23373793  0.69388471    -0.10200
C1068       C  0.72974721  0.21828581  0.69361749    -0.10800
C1069       C  0.72477252  0.19892443  0.68524352    -0.03700
C1070       C  0.70486026  0.19515718  0.67723694    -0.18800
H1071       H  0.62227370  0.17303041  0.59969507     0.10300
H1072       H  0.65592800  0.17878998  0.61610352     0.10300
H1073       H  0.62450234  0.20170391  0.67094945     0.10000
H1074       H  0.59075231  0.19613952  0.65446806     0.11100
H1075       H  0.67684711  0.18539123  0.64687473     0.11200
H1076       H  0.65574168  0.21733778  0.67495570     0.13100
H1077       H  0.68279521  0.24207377  0.68656893     0.09600
H1078       H  0.71752255  0.24873958  0.70045804     0.11700
H1079       H  0.73622665  0.18662442  0.68497285     0.08300
H1080       H  0.70147670  0.17994693  0.67131144     0.11100
C1081       C  0.82644271  0.41977567  0.48836572    -0.03500
C1082       C  0.82625818  0.42907642  0.46860132    -0.06100
C1083       C  0.82500610  0.45047888  0.46659928    -0.21200
C1084       C  0.82370415  0.46300765  0.48425147     0.24500
C1085       C  0.82483858  0.45381348  0.50401872    -0.18800
C1086       C  0.82615144  0.43242383  0.50603992    -0.08800
C1087       C  0.82125250  0.48558217  0.48159480    -0.19000
C1088       C  0.81048536  0.49714339  0.49530806    -0.23800
C1089       C  0.80791801  0.51983320  0.49376869     0.26600
C1090       C  0.80219135  0.53051238  0.51180858    -0.20600
C1091       C  0.79966563  0.55182039  0.51150198    -0.10200
C1092       C  0.80255463  0.56308439  0.49301864    -0.10800
C1093       C  0.80801979  0.55241382  0.47480095    -0.03700
C1094       C  0.81065407  0.53097017  0.47513857    -0.18800
H1095       H  0.82665621  0.41982937  0.45462718     0.10300
H1096       H  0.82446731  0.45723621  0.45121809     0.10300
H1097       H  0.82476850  0.46309198  0.51796090     0.10000
H1098       H  0.82669490  0.42580999  0.52147412     0.11100
H1099       H  0.82802208  0.49252881  0.46778753     0.11200
H1100       H  0.80346823  0.48969500  0.50876425     0.13100
H1101       H  0.79983093  0.52234163  0.52632311     0.09600
H1102       H  0.79536388  0.55942404  0.52586053     0.11700
H1103       H  0.81021104  0.56060007  0.46028711     0.08300
H1104       H  0.81449887  0.52326970  0.46074617     0.11100
C1105       C  0.81584378  0.25999979  0.34356202    -0.03500
C1106       C  0.83232071  0.25519165  0.35708682    -0.06100
C1107       C  0.83474892  0.26605461  0.37559727    -0.21200
C1108       C  0.82086092  0.28194541  0.38083830     0.24500
C1109       C  0.80370915  0.28599116  0.36791841    -0.18800
C1110       C  0.80125793  0.27514787  0.34943650    -0.08800
C1111       C  0.82458138  0.29401909  0.39987342    -0.19000
C1112       C  0.81922614  0.31399275  0.40138763    -0.23800
C1113       C  0.82258831  0.32638169  0.42031575     0.26600
C1114       C  0.82372939  0.34787596  0.41849130    -0.20600
C1115       C  0.82560072  0.36018551  0.43612534    -0.10200
C1116       C  0.82610010  0.35120270  0.45598040    -0.10800
C1117       C  0.82531055  0.32962732  0.45776298    -0.03700
C1118       C  0.82349217  0.31733737  0.44013604    -0.18800
H1119       H  0.84380615  0.24358461  0.35302539     0.10300
H1120       H  0.84791111  0.26252207  0.38549757     0.10300
H1121       H  0.79223513  0.29759518  0.37198364     0.10000
H1122       H  0.78817765  0.27895741  0.33954094     0.11100
H1123       H  0.83308173  0.28659314  0.41235329     0.11200
H1124       H  0.81275337  0.32185627  0.38798062     0.13100
H1125       H  0.82295699  0.35518020  0.40337640     0.09600
H1126       H  0.82615784  0.37674973  0.43420113     0.11700
H1127       H  0.82559632  0.32219366  0.47282463     0.08300
H1128       H  0.82207253  0.30086020  0.44221604     0.11100
C1129       C  0.82128387  0.35692459  0.53169692    -0.03500
C1130       C  0.82501515  0.33565405  0.53332992    -0.06100
C1131       C  0.82380418  0.32576309  0.55247828    -0.21200
C1132       C  0.81846784  0.33672780  0.57044669     0.24500
C1133       C  0.81434742  0.35797515  0.56895189    -0.18800
C1134       C  0.81583236  0.36801575  0.54969370    -0.08800
C1135       C  0.81878650  0.32548499  0.59044092    -0.19000
C1136       C  0.80721553  0.33049947  0.60720722    -0.23800
C1137       C  0.80801558  0.31792056  0.62646970     0.26600
C1138       C  0.79010789  0.31583919  0.63901426    -0.20600
C1139       C  0.79038471  0.30305068  0.65657036    -0.10200
C1140       C  0.80868846  0.29228277  0.66197057    -0.10800
C1141       C  0.82676698  0.29502262  0.64974940    -0.03700
C1142       C  0.82647410  0.30774033  0.63232474    -0.18800
H1143       H  0.82927888  0.32660744  0.51983804     0.10300
H1144       H  0.82715245  0.30941479  0.55326683     0.10300
H1145       H  0.81058634  0.36692385  0.58263979     0.10000
H1146       H  0.81281407  0.38441466  0.54890841     0.11100
H1147       H  0.82821288  0.31156502  0.59086205     0.11200
H1148       H  0.79605122  0.34308173  0.60635994     0.13100
H1149       H  0.77577201  0.32373608  0.63495541     0.09600
H1150       H  0.77624910  0.30148756  0.66578998     0.11700
H1151       H  0.84124280  0.28725883  0.65355670     0.08300
H1152       H  0.84081402  0.30961270  0.62350636     0.11100
C1153       C  0.39867824  0.20888893  0.69739381    -0.03500
C1154       C  0.41300790  0.22526381  0.69565460    -0.06100
C1155       C  0.43279855  0.22219195  0.68697199    -0.21200
C1156       C  0.43877644  0.20277441  0.67956187     0.24500
C1157       C  0.42437349  0.18637995  0.68094354    -0.18800
C1158       C  0.40452111  0.18943531  0.68975399    -0.08800
C1159       C  0.46033827  0.20026837  0.67114236    -0.19000
C1160       C  0.46591151  0.18510146  0.65804619    -0.23800
C1161       C  0.48699415  0.18358994  0.64840501     0.26600
C1162       C  0.48871205  0.17403511  0.62901503    -0.20600
C1163       C  0.50798520  0.17264848  0.61893499    -0.10200
C1164       C  0.52619812  0.18050809  0.62814257    -0.10800
C1165       C  0.52467182  0.18959415  0.64789170    -0.03700
C1166       C  0.50520929  0.19116653  0.65794962    -0.18800
H1167       H  0.40914272  0.24046797  0.70141182     0.10300
H1168       H  0.44354483  0.23506904  0.68614110     0.10300
H1169       H  0.42848768  0.17104368  0.67582818     0.10000
H1170       H  0.39389239  0.17649435  0.69086970     0.11100
H1171       H  0.47165415  0.21213724  0.67488957     0.11200
H1172       H  0.45417773  0.17431380  0.65270611     0.13100
H1173       H  0.47498688  0.16789995  0.62143392     0.09600
H1174       H  0.50854775  0.16532964  0.60384622     0.11700
H1175       H  0.53843335  0.19563325  0.65546452     0.08300
H1176       H  0.50452784  0.19809467  0.67320623     0.11100
C1177       C  0.35958010  0.40998815  0.50060801    -0.03500
C1178       C  0.36021840  0.42267243  0.48289540    -0.06100
C1179       C  0.36265515  0.44401245  0.48481791    -0.21200
C1180       C  0.36466125  0.45311664  0.50454340     0.24500
C1181       C  0.36383335  0.44044674  0.52218943    -0.18800
C1182       C  0.36138730  0.41916611  0.52027949    -0.08800
C1183       C  0.36663986  0.47573868  0.50756786    -0.19000
C1184       C  0.37366871  0.48883019  0.49282675    -0.23800
C1185       C  0.37489367  0.51160350  0.49550691     0.26600
C1186       C  0.37765428  0.52388115  0.47773521    -0.20600
C1187       C  0.37799534  0.54535000  0.47919554    -0.10200
C1188       C  0.37572230  0.55511064  0.49854440    -0.10800
C1189       C  0.37370500  0.54285978  0.51645311    -0.03700
C1190       C  0.37332729  0.52137013  0.51499435    -0.18800
H1191       H  0.35859365  0.41615890  0.46752380     0.10300
H1192       H  0.36245706  0.45325265  0.47084150     0.10300
H1193       H  0.36512878  0.44704690  0.53756811     0.10000
H1194       H  0.36088384  0.40992954  0.53428964     0.11100
H1195       H  0.36213351  0.48155275  0.52269790     0.11200
H1196       H  0.37838129  0.48277060  0.47782427     0.13100
H1197       H  0.37918589  0.51684489  0.46255852     0.09600
H1198       H  0.37985671  0.55428995  0.46509397     0.11700
H1199       H  0.37212393  0.54986343  0.53163236     0.08300
H1200       H  0.37188023  0.51268143  0.52923919     0.11100
C1201       C  0.35233794  0.34730348  0.45760002    -0.03500
C1202       C  0.35817201  0.35785252  0.43937276    -0.06100
C1203       C  0.35682011  0.34818002  0.42000007    -0.21200
C1204       C  0.34931708  0.32791966  0.41840411     0.24500
C1205       C  0.34393465  0.31723253  0.43668044    -0.18800
C1206       C  0.34542112  0.32681348  0.45600834    -0.08800
C1207       C  0.34761761  0.31821166  0.39757457    -0.19000
C1208       C  0.33359057  0.30332684  0.39333234    -0.23800
C1209       C  0.33121264  0.29378150  0.37251735     0.26600
C1210       C  0.31181583  0.28526031  0.36722527    -0.20600
C1211       C  0.30891435  0.27592698  0.34790967    -0.10200
C1212       C  0.32545931  0.27469784  0.33343166    -0.10800
C1213       C  0.34501430  0.28294396  0.33889535    -0.03700
C1214       C  0.34788000  0.29235971  0.35822115    -0.18800
H1215       H  0.36379288  0.37356676  0.44005894     0.10300
H1216       H  0.36133987  0.35665751  0.40618167     0.10300
H1217       H  0.33879671  0.30136958  0.43618099     0.10000
H1218       H  0.34096654  0.31814342  0.46971691     0.11100
H1219       H  0.35734169  0.32437092  0.38515953     0.11200
H1220       H  0.32247037  0.29868926  0.40526068     0.13100
H1221       H  0.29877638  0.28597586  0.37803211     0.09600
H1222       H  0.29365583  0.26968495  0.34434565     0.11700
H1223       H  0.35819256  0.28200439  0.32829383     0.08300
H1224       H  0.36324227  0.29814722  0.36203177     0.11100
C1225       C  0.34910235  0.34236923  0.53384857    -0.03500
C1226       C  0.34370362  0.32142294  0.53258084    -0.06100
C1227       C  0.34165601  0.30949799  0.55056326    -0.21200
C1228       C  0.34506770  0.31814725  0.57020783     0.24500
C1229       C  0.35029414  0.33916442  0.57151003    -0.18800
C1230       C  0.35229896  0.35110385  0.55353086    -0.08800
C1231       C  0.34166920  0.30508441  0.58889793    -0.19000
C1232       C  0.34871418  0.30981868  0.60796803    -0.23800
C1233       C  0.34355265  0.29737893  0.62666840     0.26600
C1234       C  0.35701317  0.29797205  0.64375015    -0.20600
C1235       C  0.35236005  0.28680937  0.66175993    -0.10200
C1236       C  0.33395914  0.27497365  0.66317663    -0.10800
C1237       C  0.32029063  0.27469598  0.64618923    -0.03700
C1238       C  0.32499713  0.28580348  0.62815809    -0.18800
H1239       H  0.34093150  0.31422379  0.51769712     0.10300
H1240       H  0.33732614  0.29343438  0.54911456     0.10300
H1241       H  0.35238614  0.34666077  0.58632069     0.10000
H1242       H  0.35632528  0.36722324  0.55509653     0.11100
H1243       H  0.33315632  0.29079856  0.58670616     0.11200
H1244       H  0.35900014  0.32292073  0.61005331     0.13100
H1245       H  0.37123298  0.30702363  0.64312215     0.09600
H1246       H  0.36316794  0.28756458  0.67461283     0.11700
H1247       H  0.30587972  0.26596101  0.64682422     0.08300
H1248       H  0.31382076  0.28561737  0.61562711     0.11100
C1249       C  0.49179737  0.47831104  0.22970888    -0.03500
C1250       C  0.50181041  0.45911060  0.22761951    -0.06100
C1251       C  0.52357037  0.45783078  0.22625681    -0.21200
C1252       C  0.53590057  0.47566865  0.22670218     0.24500
C1253       C  0.52594951  0.49495041  0.22850558    -0.18800
C1254       C  0.50412102  0.49624140  0.22992472    -0.08800
C1255       C  0.55902540  0.47334288  0.22629131    -0.19000
C1256       C  0.57220686  0.48815130  0.21956371    -0.23800
C1257       C  0.59542283  0.48602645  0.21909261     0.26600
C1258       C  0.60756787  0.50383062  0.21615619    -0.20600
C1259       C  0.62940651  0.50268979  0.21530485    -0.10200
C1260       C  0.63964898  0.48362848  0.21725095    -0.10800
C1261       C  0.62751367  0.46578268  0.22012500    -0.03700
C1262       C  0.60570346  0.46691784  0.22097960    -0.18800
H1263       H  0.49287125  0.44495618  0.22731278     0.10300
H1264       H  0.53082144  0.44279344  0.22493747     0.10300
H1265       H  0.53491447  0.50902752  0.22948963     0.10000
H1266       H  0.49695209  0.51126457  0.23163768     0.11100
H1267       H  0.56511348  0.45867493  0.23154845     0.11200
H1268       H  0.56580594  0.50265226  0.21411119     0.13100
H1269       H  0.60012064  0.51874011  0.21455825     0.09600
H1270       H  0.63823509  0.51675412  0.21305936     0.11700
H1271       H  0.63484801  0.45082006  0.22165851     0.08300
H1272       H  0.59716826  0.45267312  0.22274917     0.11100
C1273       C  0.42446690  0.44277745  0.23948356    -0.03500
C1274       C  0.43485700  0.42381049  0.24156998    -0.06100
C1275       C  0.42351748  0.40557866  0.24401395    -0.21200
C1276       C  0.40157322  0.40581228  0.24409888     0.24500
C1277       C  0.39112213  0.42477987  0.24219425    -0.18800
C1278       C  0.40246740  0.44306297  0.23992015    -0.08800
C1279       C  0.39025749  0.38605600  0.24696625    -0.19000
C1280       C  0.37060961  0.38263934  0.24032287    -0.23800
C1281       C  0.36008114  0.36238322  0.24290032     0.26600
C1282       C  0.34478632  0.35628206  0.22862069    -0.20600
C1283       C  0.33574636  0.33665994  0.22990711    -0.10200
C1284       C  0.34181665  0.32282212  0.24559199    -0.10800
C1285       C  0.35621929  0.32945910  0.26055760    -0.03700
C1286       C  0.36515463  0.34900801  0.25930115    -0.18800
H1287       H  0.45177552  0.42303157  0.24150146     0.10300
H1288       H  0.43193912  0.39119073  0.24570921     0.10300
H1289       H  0.37423527  0.42563572  0.24284403     0.10000
H1290       H  0.39396824  0.45742837  0.23852781     0.11100
H1291       H  0.39903041  0.37346224  0.25380762     0.11200
H1292       H  0.36251483  0.39446750  0.23155338     0.13100
H1293       H  0.34032473  0.36645880  0.21605562     0.09600
H1294       H  0.32454622  0.33210886  0.21824143     0.11700
H1295       H  0.36089723  0.31940469  0.27313826     0.08300
H1296       H  0.37611061  0.35351716  0.27118295     0.11100
C1297       C  0.42631411  0.51849074  0.23829866    -0.03500
C1298       C  0.40453928  0.51884931  0.24157362    -0.06100
C1299       C  0.39363149  0.53747547  0.24206231    -0.21200
C1300       C  0.40414851  0.55624911  0.23942487     0.24500
C1301       C  0.42601085  0.55597842  0.23645537    -0.18800
C1302       C  0.43695796  0.53729654  0.23598964    -0.08800
C1303       C  0.39156249  0.57553605  0.23905918    -0.19000
C1304       C  0.39966513  0.59442768  0.24197747    -0.23800
C1305       C  0.38683764  0.61350779  0.24230544     0.26600
C1306       C  0.39439035  0.63051785  0.25328868    -0.20600
C1307       C  0.38271844  0.64861768  0.25458229    -0.10200
C1308       C  0.36320545  0.65025805  0.24472176    -0.10800
C1309       C  0.35593142  0.63347934  0.23305471    -0.03700
C1310       C  0.36762869  0.61526240  0.23184261    -0.18800
H1311       H  0.39578487  0.50469976  0.24352759     0.10300
H1312       H  0.37683440  0.53718984  0.24437807     0.10300
H1313       H  0.43473840  0.57001187  0.23389708     0.10000
H1314       H  0.45371153  0.53759649  0.23344537     0.11100
H1315       H  0.37478184  0.57391083  0.23722503     0.11200
H1316       H  0.41609681  0.59603515  0.24569115     0.13100
H1317       H  0.40925622  0.62969076  0.26122660     0.09600
H1318       H  0.38901855  0.66131238  0.26345061     0.11700
H1319       H  0.34113619  0.63434432  0.22501172     0.08300
H1320       H  0.36165600  0.60272649  0.22257286     0.11100
C1321       C  0.63471356  0.48502794  0.78437390    -0.03500
C1322       C  0.62415544  0.50404434  0.78466717    -0.06100
C1323       C  0.60237180  0.50488426  0.78352325    -0.21200
C1324       C  0.59047529  0.48680415  0.78200164     0.24500
C1325       C  0.60100058  0.46769255  0.78197604    -0.18800
C1326       C  0.62286245  0.46685479  0.78309184    -0.08800
C1327       C  0.56725289  0.48881815  0.78095507    -0.19000
C1328       C  0.55421999  0.47347596  0.77546372    -0.23800
C1329       C  0.53102736  0.47559604  0.77448784     0.26600
C1330       C  0.51893277  0.45757941  0.77458386    -0.20600
C1331       C  0.49716392  0.45855222  0.77329168    -0.10200
C1332       C  0.48683629  0.47763078  0.77182315    -0.10800
C1333       C  0.49888697  0.49573523  0.77163448    -0.03700
C1334       C  0.52074928  0.49475528  0.77283767    -0.18800
H1335       H  0.63270573  0.51839599  0.78565885     0.10300
H1336       H  0.59477845  0.51981035  0.78369981     0.10300
H1337       H  0.59259945  0.45328663  0.78137661     0.10000
H1338       H  0.63046213  0.45194203  0.78294004     0.11100
H1339       H  0.56078006  0.50377128  0.78484407     0.11200
H1340       H  0.56055373  0.45844490  0.77171939     0.13100
H1341       H  0.52636609  0.44261889  0.77572449     0.09600
H1342       H  0.48843049  0.44426835  0.77350369     0.11700
H1343       H  0.49145702  0.51066624  0.77024870     0.08300
H1344       H  0.52941023  0.50902304  0.77202832     0.11100
C1345       C  0.34173686  0.31938039  0.74951347    -0.03500
C1346       C  0.33500266  0.33298067  0.76513030    -0.06100
C1347       C  0.34330424  0.35290585  0.76629927    -0.21200
C1348       C  0.35846579  0.35964478  0.75192381     0.24500
C1349       C  0.36422465  0.34644479  0.73555808    -0.18800
C1350       C  0.35606081  0.32653582  0.73446961    -0.08800
C1351       C  0.36812475  0.38030416  0.75474639    -0.19000
C1352       C  0.38712966  0.38537327  0.74706301    -0.23800
C1353       C  0.39793907  0.40516282  0.75150076     0.26600
C1354       C  0.41970770  0.40617784  0.74864600    -0.20600
C1355       C  0.43069375  0.42419696  0.75318204    -0.10200
C1356       C  0.42010001  0.44175853  0.76042969    -0.10800
C1357       C  0.39824665  0.44093906  0.76284611    -0.03700
C1358       C  0.38726257  0.42287534  0.75839974    -0.18800
H1359       H  0.32384277  0.32802339  0.77682754     0.10300
H1360       H  0.33832508  0.36287928  0.77886431     0.10300
H1361       H  0.37507326  0.35131016  0.72357438     0.10000
H1362       H  0.36115397  0.31664892  0.72187886     0.11100
H1363       H  0.35999387  0.39094206  0.76494756     0.11200
H1364       H  0.39599812  0.37400123  0.73837231     0.13100
H1365       H  0.42831614  0.39287412  0.74310876     0.09600
H1366       H  0.44748374  0.42438896  0.75086959     0.11700
H1367       H  0.38958774  0.45425820  0.76824704     0.08300
H1368       H  0.37044561  0.42303170  0.76018639     0.11100
C1369       C  0.35517658  0.64626224  0.75576592    -0.03500
C1370       C  0.37425910  0.64295867  0.74527076    -0.06100
C1371       C  0.38559121  0.62483229  0.74825245    -0.21200
C1372       C  0.37818120  0.60941468  0.76167528     0.24500
C1373       C  0.35909946  0.61265975  0.77227414    -0.18800
C1374       C  0.34771036  0.63086184  0.76927865    -0.08800
C1375       C  0.39110849  0.59050019  0.76422359    -0.19000
C1376       C  0.38400896  0.57273268  0.77245223    -0.23800
C1377       C  0.39680159  0.55362510  0.77311137     0.26600
C1378       C  0.38652304  0.53458658  0.77257815    -0.20600
C1379       C  0.39789752  0.51623250  0.77215906    -0.10200
C1380       C  0.41990672  0.51644715  0.77249743    -0.10800
C1381       C  0.43022541  0.53550956  0.77381893    -0.03700
C1382       C  0.41879932  0.55392583  0.77414777    -0.18800
H1383       H  0.38063101  0.65447430  0.73482492     0.10300
H1384       H  0.40025931  0.62285226  0.73997016     0.10300
H1385       H  0.35300624  0.60147269  0.78317525     0.10000
H1386       H  0.33318687  0.63296257  0.77775880     0.11100
H1387       H  0.40684500  0.59093275  0.75780445     0.11200
H1388       H  0.36779839  0.57146493  0.77731334     0.13100
H1389       H  0.36960639  0.53391192  0.77198528     0.09600
H1390       H  0.38936373  0.50186051  0.77132996     0.11700
H1391       H  0.44713133  0.53623696  0.77433263     0.08300
H1392       H  0.42724110  0.56830949  0.77529437     0.11100
C1393       C  0.03227852  0.27192336  0.13486974    -0.03500
C1394       C  0.01242812  0.27807936  0.12799164    -0.06100
C1395       C  0.99469453  0.27449823  0.14015066    -0.21200
C1396       C  0.99625995  0.26426785  0.15924154     0.24500
C1397       C  0.01603758  0.25769801  0.16607874    -0.18800
C1398       C  0.03393355  0.26160865  0.15401524    -0.08800
C1399       C  0.97702463  0.26181728  0.17192859    -0.19000
C1400       C  0.97383267  0.24627478  0.18540741    -0.23800
C1401       C  0.95380389  0.24416158  0.19693235     0.26600
C1402       C  0.94551297  0.22450967  0.20077503    -0.20600
C1403       C  0.92607519  0.22229945  0.21067137    -0.10200
C1404       C  0.91482461  0.23974926  0.21728668    -0.10800
C1405       C  0.92354955  0.25937747  0.21401880    -0.03700
C1406       C  0.94277995  0.26156584  0.20394103    -0.18800
H1407       H  0.01060922  0.28614335  0.11337953     0.10300
H1408       H  0.97965080  0.27979835  0.13462154     0.10300
H1409       H  0.01779274  0.25010419  0.18093919     0.10000
H1410       H  0.04903186  0.25664088  0.15968068     0.11100
H1411       H  0.96439207  0.27263884  0.16903680     0.11200
H1412       H  0.98539749  0.23411252  0.18688265     0.13100
H1413       H  0.95383458  0.21088814  0.19561803     0.09600
H1414       H  0.91981807  0.20696901  0.21302506     0.11700
H1415       H  0.91534366  0.27315888  0.21891182     0.08300
H1416       H  0.94902036  0.27691221  0.20168559     0.11100
C1417       C  0.23668285  0.25025469  0.19071965    -0.03500
C1418       C  0.22211546  0.23449595  0.18701477    -0.06100
C1419       C  0.20296240  0.23887985  0.17777116    -0.21200
C1420       C  0.19793857  0.25901587  0.17170138     0.24500
C1421       C  0.21269984  0.27477194  0.17469787    -0.18800
C1422       C  0.23189387  0.27041365  0.18414222    -0.08800
C1423       C  0.17656830  0.26296127  0.16383708    -0.19000
C1424       C  0.17124408  0.27891548  0.15159181    -0.23800
C1425       C  0.14948608  0.28149736  0.14410115     0.26600
C1426       C  0.14595614  0.28971421  0.12429456    -0.20600
C1427       C  0.12568653  0.29058463  0.11630140    -0.10200
C1428       C  0.10851163  0.28346443  0.12809641    -0.10800
C1429       C  0.11197452  0.27636166  0.14838530    -0.03700
C1430       C  0.13222221  0.27543201  0.15631878    -0.18800
H1431       H  0.22520607  0.21879487  0.19180311     0.10300
H1432       H  0.19183868  0.22648721  0.17566049     0.10300
H1433       H  0.20918501  0.29054993  0.17054457     0.10000
H1434       H  0.24273915  0.28293172  0.18676173     0.11100
H1435       H  0.16476837  0.25152522  0.16770388     0.11200
H1436       H  0.18319301  0.28934207  0.14576577     0.13100
H1437       H  0.15896152  0.29480705  0.11472371     0.09600
H1438       H  0.12355032  0.29649285  0.10072350     0.11700
H1439       H  0.09910371  0.27108977  0.15801987     0.08300
H1440       H  0.13433243  0.26980491  0.17199447     0.11100
C1441       C  0.89596885  0.71387177  0.79656210    -0.03500
C1442       C  0.91027494  0.73017920  0.79869472    -0.06100
C1443       C  0.93007603  0.72679390  0.80703849    -0.21200
C1444       C  0.93611255  0.70710584  0.81367221     0.24500
C1445       C  0.92184299  0.69070772  0.81164459    -0.18800
C1446       C  0.90199272  0.69407012  0.80314305    -0.08800
C1447       C  0.95766800  0.70431728  0.82182815    -0.19000
C1448       C  0.96315878  0.68908730  0.83491232    -0.23800
C1449       C  0.98446577  0.68721422  0.84388467     0.26600
C1450       C  0.98654595  0.67809930  0.86349082    -0.20600
C1451       C  0.00614978  0.67620767  0.87271130    -0.10200
C1452       C  0.02432143  0.68309985  0.86241946    -0.10800
C1453       C  0.02236624  0.69179358  0.84249273    -0.03700
C1454       C  0.00261703  0.69389716  0.83332695    -0.18800
H1455       H  0.90629012  0.74562769  0.79373425     0.10300
H1456       H  0.94074912  0.73967390  0.80833809     0.10300
H1457       H  0.92607905  0.67519938  0.81612485     0.10000
H1458       H  0.89142960  0.68113629  0.80161939     0.11100
H1459       H  0.96911691  0.71605069  0.81785589     0.11200
H1460       H  0.95129681  0.67846968  0.84054495     0.13100
H1461       H  0.97287201  0.67268969  0.87188633     0.09600
H1462       H  0.00701640  0.66930653  0.88799912     0.11700
H1463       H  0.03603551  0.69717841  0.83408736     0.08300
H1464       H  0.00164703  0.70050992  0.81792741     0.11100
C1465       C  0.23522941  0.70631977  0.80108982    -0.03500
C1466       C  0.23438318  0.68885360  0.81398132    -0.06100
C1467       C  0.21610935  0.68430923  0.82523040    -0.21200
C1468       C  0.19832496  0.69690136  0.82344370     0.24500
C1469       C  0.19935457  0.71450582  0.81077920    -0.18800
C1470       C  0.21751600  0.71909031  0.79971061    -0.08800
C1471       C  0.17902974  0.69180289  0.83527828    -0.19000
C1472       C  0.15988942  0.69716369  0.82848381    -0.23800
C1473       C  0.14024868  0.69312962  0.84012391     0.26600
C1474       C  0.12135850  0.69255559  0.82916865    -0.20600
C1475       C  0.10237203  0.68946758  0.83958189    -0.10200
C1476       C  0.10187739  0.68704500  0.86125336    -0.10800
C1477       C  0.12082405  0.68787095  0.87225168    -0.03700
C1478       C  0.13979425  0.69094018  0.86182904    -0.18800
H1479       H  0.24786150  0.67886937  0.81552453     0.10300
H1480       H  0.21577046  0.67082733  0.83515926     0.10300
H1481       H  0.18627307  0.72501602  0.80960034     0.10000
H1482       H  0.21760691  0.73271090  0.78997539     0.11100
H1483       H  0.18063957  0.68281535  0.84940454     0.11200
H1484       H  0.15834543  0.70425253  0.81328777     0.13100
H1485       H  0.12129969  0.69443724  0.81245085     0.09600
H1486       H  0.08810824  0.68894912  0.83063320     0.11700
H1487       H  0.12103428  0.68632350  0.88899295     0.08300
H1488       H  0.15394323  0.69202075  0.87087902     0.11100
C1489       C  0.26647351  0.81733910  0.26416164    -0.03500
C1490       C  0.24702082  0.81993835  0.25441171    -0.06100
C1491       C  0.23442967  0.83695210  0.25898624    -0.21200
C1492       C  0.24100379  0.85186426  0.27325376     0.24500
C1493       C  0.26021161  0.84900628  0.28345097    -0.18800
C1494       C  0.27284085  0.83201825  0.27884125    -0.08800
C1495       C  0.22755748  0.87025757  0.27676129    -0.19000
C1496       C  0.23511746  0.88835472  0.28361128    -0.23800
C1497       C  0.22271918  0.90770083  0.28485344     0.26600
C1498       C  0.23363146  0.92641247  0.28563705    -0.20600
C1499       C  0.22293800  0.94513277  0.28648488    -0.10200
C1500       C  0.20096966  0.94563133  0.28682046    -0.10800
C1501       C  0.18995279  0.92689180  0.28630118    -0.03700
C1502       C  0.20069250  0.90809661  0.28534007    -0.18800
H1503       H  0.24143803  0.80879683  0.24325442     0.10300
H1504       H  0.21961222  0.83862463  0.25109524     0.10300
H1505       H  0.26551566  0.85965888  0.29517190     0.10000
H1506       H  0.28750805  0.83029529  0.28697889     0.11100
H1507       H  0.21142850  0.86926085  0.27176131     0.11200
H1508       H  0.25166567  0.88966145  0.28694099     0.13100
H1509       H  0.25057568  0.92658168  0.28538556     0.09600
H1510       H  0.23195605  0.95923286  0.28696811     0.11700
H1511       H  0.17301835  0.92673071  0.28655599     0.08300
H1512       H  0.19164940  0.89403616  0.28524935     0.11100
C1513       C  0.20204492  0.02132817  0.28089496    -0.03500
C1514       C  0.19190472  0.04046958  0.28276942    -0.06100
C1515       C  0.20258899  0.05874357  0.27846275    -0.21200
C1516       C  0.22365408  0.05835700  0.27231291     0.24500
C1517       C  0.23387857  0.03924358  0.27043561    -0.18800
C1518       C  0.22318604  0.02093306  0.27474134    -0.08800
C1519       C  0.23404309  0.07809213  0.26698748    -0.19000
C1520       C  0.25486922  0.08084171  0.26747917    -0.23800
C1521       C  0.26461557  0.10083160  0.26218334     0.26600
C1522       C  0.25655722  0.11352401  0.24643528    -0.20600
C1523       C  0.26574853  0.13257260  0.24213015    -0.10200
C1524       C  0.28317220  0.13926637  0.25348223    -0.10800
C1525       C  0.29152551  0.12624963  0.26881751    -0.03700
C1526       C  0.28239498  0.10716661  0.27301485    -0.18800
H1527       H  0.17563670  0.04137863  0.28745416     0.10300
H1528       H  0.19433727  0.07326063  0.27990424     0.10300
H1529       H  0.24993315  0.03828106  0.26513004     0.10000
H1530       H  0.23141939  0.00645861  0.27292472     0.11100
H1531       H  0.22404628  0.09113549  0.26333672     0.11200
H1532       H  0.26497275  0.06867022  0.27318061     0.13100
H1533       H  0.24321458  0.10871272  0.23739332     0.09600
H1534       H  0.25907212  0.14211899  0.23005651     0.11700
H1535       H  0.30488236  0.13095599  0.27790330     0.08300
H1536       H  0.28891088  0.09754812  0.28512116     0.11100
C1537       C  0.91342962  0.94729081  0.70849450    -0.03500
C1538       C  0.89153811  0.94895927  0.70710020    -0.06100
C1539       C  0.87883361  0.93163228  0.70970515    -0.21200
C1540       C  0.88767507  0.91232341  0.71394927     0.24500
C1541       C  0.90961831  0.91048369  0.71446757    -0.18800
C1542       C  0.92232608  0.92779478  0.71184397    -0.08800
C1543       C  0.87358473  0.89450656  0.71778931    -0.19000
C1544       C  0.87933940  0.87819394  0.72933713    -0.23800
C1545       C  0.86564691  0.86032820  0.73417811     0.26600
C1546       C  0.87154114  0.84736849  0.75053370    -0.20600
C1547       C  0.86034644  0.82947130  0.75487790    -0.10200
C1548       C  0.84300449  0.82385307  0.74278857    -0.10800
C1549       C  0.83654229  0.83720456  0.72685867    -0.03700
C1550       C  0.84779111  0.85526320  0.72252625    -0.18800
H1551       H  0.88415332  0.96371054  0.70428423     0.10300
H1552       H  0.86200994  0.93341532  0.70890191     0.10300
H1553       H  0.91710516  0.89573148  0.71683443     0.10000
H1554       H  0.93912282  0.92591921  0.71278192     0.11100
H1555       H  0.85769102  0.89560968  0.71211646     0.11200
H1556       H  0.89466654  0.87817874  0.73647590     0.13100
H1557       H  0.88517319  0.85088207  0.75978576     0.09600
H1558       H  0.86578979  0.81968367  0.76736149     0.11700
H1559       H  0.82334370  0.83328913  0.71718873     0.08300
H1560       H  0.84290123  0.86465517  0.70956076     0.11100
C1561       C  0.84337950  0.14551099  0.72957005    -0.03500
C1562       C  0.83155409  0.12973072  0.72044423    -0.06100
C1563       C  0.84058665  0.11049740  0.71648632    -0.21200
C1564       C  0.86164541  0.10676200  0.72126568     0.24500
C1565       C  0.87339614  0.12251838  0.73055055    -0.18800
C1566       C  0.86436635  0.14165403  0.73459488    -0.08800
C1567       C  0.87052571  0.08600769  0.71732191    -0.19000
C1568       C  0.89120717  0.08238709  0.71535210    -0.23800
C1569       C  0.90044870  0.06154397  0.71271301     0.26600
C1570       C  0.92152122  0.05992097  0.70661941    -0.20600
C1571       C  0.93110488  0.04064790  0.70471549    -0.10200
C1572       C  0.91974604  0.02257158  0.70881335    -0.10800
C1573       C  0.89867340  0.02418050  0.71490354    -0.03700
C1574       C  0.88917409  0.04340665  0.71702421    -0.18800
H1575       H  0.81529009  0.13217540  0.71653809     0.10300
H1576       H  0.83111635  0.09851389  0.70960286     0.10300
H1577       H  0.88943492  0.12009997  0.73516885     0.10000
H1578       H  0.87391216  0.15347402  0.74163521     0.11100
H1579       H  0.85944530  0.07353229  0.71550233     0.11200
H1580       H  0.90200560  0.09526823  0.71527151     0.13100
H1581       H  0.93064917  0.07362996  0.70341647     0.09600
H1582       H  0.94738931  0.03991497  0.70004477     0.11700
H1583       H  0.88957086  0.01056199  0.71852107     0.08300
H1584       H  0.87318399  0.04380670  0.72251365     0.11100
C1585       C  0.27254852  0.11378080  0.96082779    -0.03500
C1586       C  0.26953879  0.13522938  0.96017333    -0.06100
C1587       C  0.27266524  0.14617913  0.94165528    -0.21200
C1588       C  0.27933952  0.13602951  0.92355668     0.24500
C1589       C  0.28274538  0.11463204  0.92430540    -0.18800
C1590       C  0.27929147  0.10363921  0.94270579    -0.08800
C1591       C  0.28143108  0.14787420  0.90387180    -0.19000
C1592       C  0.29510137  0.14272855  0.88875889    -0.23800
C1593       C  0.29695673  0.15422854  0.86888650     0.26600
C1594       C  0.31653630  0.15534386  0.85905053    -0.20600
C1595       C  0.31889228  0.16583636  0.84023967    -0.10200
C1596       C  0.30159420  0.17506277  0.83056106    -0.10800
C1597       C  0.28182107  0.17346262  0.84007537    -0.03700
C1598       C  0.27953896  0.16326836  0.85916920    -0.18800
H1599       H  0.26430493  0.14348872  0.97384989     0.10300
H1600       H  0.26982587  0.16263193  0.94144536     0.10300
H1601       H  0.28745366  0.10622544  0.91055093     0.10000
H1602       H  0.28184012  0.08714435  0.94270852     0.11100
H1603       H  0.27194181  0.16164773  0.90211570     0.11200
H1604       H  0.30611256  0.13026247  0.89140192     0.13100
H1605       H  0.33013050  0.14832182  0.86610761     0.09600
H1606       H  0.33431086  0.16669970  0.83322028     0.11700
H1607       H  0.26823567  0.18045814  0.83298693     0.08300
H1608       H  0.26412726  0.16221471  0.86614008     0.11100
C1609       C  0.30362410  0.18146965  0.16024052    -0.03500
C1610       C  0.31939443  0.17950133  0.14506344    -0.06100
C1611       C  0.31520503  0.16993802  0.12606511    -0.21200
C1612       C  0.29525807  0.16196206  0.12182694     0.24500
C1613       C  0.27948844  0.16386561  0.13702529    -0.18800
C1614       C  0.28366359  0.17339575  0.15600259    -0.08800
C1615       C  0.29133255  0.15262215  0.10110264    -0.19000
C1616       C  0.27568531  0.13925393  0.09717033    -0.23800
C1617       C  0.27229484  0.12993248  0.07634026     0.26600
C1618       C  0.26252760  0.11061221  0.07489333    -0.20600
C1619       C  0.25978911  0.10113643  0.05555669    -0.10200
C1620       C  0.26644765  0.11098068  0.03719194    -0.10800
C1621       C  0.27541673  0.13069954  0.03862910    -0.03700
C1622       C  0.27832698  0.14005220  0.05792882    -0.18800
H1623       H  0.33492904  0.18552035  0.14775887     0.10300
H1624       H  0.32761254  0.16880940  0.11458728     0.10300
H1625       H  0.26375040  0.15853023  0.13419141     0.10000
H1626       H  0.27104061  0.17479248  0.16720732     0.11100
H1627       H  0.30244841  0.15627453  0.08883170     0.11200
H1628       H  0.26571665  0.13397287  0.10979214     0.13100
H1629       H  0.25741113  0.10262402  0.08880692     0.09600
H1630       H  0.25260449  0.08604764  0.05501465     0.11700
H1631       H  0.28058853  0.13882724  0.02482982     0.08300
H1632       H  0.28518886  0.15527083  0.05831056     0.11100
C1633       C  0.82291440  0.77755188  0.83703353    -0.03500
C1634       C  0.80868421  0.77351979  0.85330431    -0.06100
C1635       C  0.81107071  0.78281334  0.87266288    -0.21200
C1636       C  0.82746671  0.79665148  0.87616289     0.24500
C1637       C  0.84188558  0.80060774  0.86004939    -0.18800
C1638       C  0.83967093  0.79106775  0.84068600    -0.08800
C1639       C  0.82918580  0.80629576  0.89693473    -0.19000
C1640       C  0.83671806  0.82542568  0.89988665    -0.23800
C1641       C  0.83662747  0.83561410  0.92053780     0.26600
C1642       C  0.83554459  0.85718158  0.92155383    -0.20600
C1643       C  0.83419237  0.86719588  0.94073592    -0.10200
C1644       C  0.83402293  0.85580518  0.95933738    -0.10800
C1645       C  0.83612165  0.83426929  0.95830859    -0.03700
C1646       C  0.83745921  0.82428520  0.93915331    -0.18800
H1647       H  0.79568807  0.76306816  0.85114829     0.10300
H1648       H  0.79986526  0.77940150  0.88488499     0.10300
H1649       H  0.85501634  0.81081819  0.86245707     0.10000
H1650       H  0.85097847  0.79439445  0.82854913     0.11100
H1651       H  0.82235598  0.79795816  0.90993459     0.11200
H1652       H  0.84151673  0.83453994  0.88652543     0.13100
H1653       H  0.83517747  0.86628304  0.90744540     0.09600
H1654       H  0.83285200  0.88382389  0.94094320     0.11700
H1655       H  0.83647208  0.82502878  0.97231637     0.08300
H1656       H  0.83915095  0.80770448  0.93902726     0.11100
C1657       C  0.82439828  0.85115463  0.03501035    -0.03500
C1658       C  0.82282712  0.86024971  0.05473492    -0.06100
C1659       C  0.82200457  0.84800080  0.07260827    -0.21200
C1660       C  0.82242063  0.82642477  0.07119213     0.24500
C1661       C  0.82385694  0.81726287  0.05148653    -0.18800
C1662       C  0.82484597  0.82949844  0.03361429    -0.08800
C1663       C  0.82274921  0.81411139  0.09062725    -0.19000
C1664       C  0.81604091  0.79447512  0.09212730    -0.23800
C1665       C  0.81735506  0.78276749  0.11190835     0.26600
C1666       C  0.80184779  0.76831714  0.11716932    -0.20600
C1667       C  0.80261608  0.75772941  0.13616802    -0.10200
C1668       C  0.81908494  0.76127923  0.15008950    -0.10800
C1669       C  0.83495030  0.77521513  0.14435599    -0.03700
C1670       C  0.83413357  0.78576263  0.12552073    -0.18800
H1671       H  0.82251083  0.87683980  0.05641637     0.10300
H1672       H  0.82109789  0.85542167  0.08764114     0.10300
H1673       H  0.82481669  0.80070397  0.04982876     0.10000
H1674       H  0.82617272  0.82192647  0.01869505     0.11100
H1675       H  0.82815792  0.82187578  0.10452290     0.11200
H1676       H  0.80859912  0.78713504  0.07897021     0.13100
H1677       H  0.78886878  0.76561266  0.10680281     0.09600
H1678       H  0.79012783  0.74714363  0.14013654     0.11700
H1679       H  0.84805554  0.77811210  0.15450621     0.08300
H1680       H  0.84674575  0.79621415  0.12160244     0.11100
C1681       C  0.06520316  0.27681532  0.92164535    -0.03500
C1682       C  0.08477669  0.27958404  0.93102431    -0.06100
C1683       C  0.08624080  0.28269711  0.95237276    -0.21200
C1684       C  0.06822989  0.28330123  0.96488129     0.24500
C1685       C  0.04857223  0.28052542  0.95559072    -0.18800
C1686       C  0.04709782  0.27731301  0.93416634    -0.08800
C1687       C  0.07093917  0.28548649  0.98761336    -0.19000
C1688       C  0.05597103  0.29224583  0.00075408    -0.23800
C1689       C  0.05884807  0.29282324  0.02364092     0.26600
C1690       C  0.04110651  0.29237970  0.03657893    -0.20600
C1691       C  0.04319768  0.29083594  0.05812411    -0.10200
C1692       C  0.06313121  0.28989003  0.06716535    -0.10800
C1693       C  0.08086397  0.29162041  0.05430546    -0.03700
C1694       C  0.07877368  0.29319378  0.03282112    -0.18800
H1695       H  0.09906280  0.27923509  0.92191012     0.10300
H1696       H  0.10157191  0.28460794  0.95917098     0.10300
H1697       H  0.03436463  0.28027089  0.96478574     0.10000
H1698       H  0.03177999  0.27512079  0.92745163     0.11100
H1699       H  0.08607131  0.28099311  0.99360243     0.11200
H1700       H  0.04076166  0.29657808  0.99477887     0.13100
H1701       H  0.02557441  0.29251767  0.02996165     0.09600
H1702       H  0.02919777  0.28993358  0.06763514     0.11700
H1703       H  0.09645386  0.29129097  0.06076746     0.08300
H1704       H  0.09287805  0.29457150  0.02359264     0.11100
C1705       C  0.02344263  0.26292209  0.85928451    -0.03500
C1706       C  0.00702402  0.25478541  0.87136645    -0.06100
C1707       C  0.98763147  0.25067056  0.86248910    -0.21200
C1708       C  0.98406007  0.25511201  0.84153169     0.24500
C1709       C  0.00039545  0.26327477  0.82934439    -0.18800
C1710       C  0.02001009  0.26696478  0.83812179    -0.08800
C1711       C  0.96329622  0.25051800  0.83273133    -0.19000
C1712       C  0.95373309  0.26323110  0.81931040    -0.23800
C1713       C  0.93242045  0.25921184  0.81133427     0.26600
C1714       C  0.91963588  0.27590732  0.80589237    -0.20600
C1715       C  0.89967261  0.27260689  0.79781307    -0.10200
C1716       C  0.89220057  0.25247519  0.79473891    -0.10800
C1717       C  0.90504282  0.23575776  0.80026952    -0.03700
C1718       C  0.92491946  0.23907475  0.80845894    -0.18800
H1719       H  0.00922122  0.25136967  0.88767242     0.10300
H1720       H  0.97526177  0.24427029  0.87209160     0.10300
H1721       H  0.99809851  0.26647355  0.81300931     0.10000
H1722       H  0.03238873  0.27320220  0.82843210     0.11100
H1723       H  0.95500584  0.23719868  0.83882275     0.11200
H1724       H  0.96124309  0.27765497  0.81502991     0.13100
H1725       H  0.92512811  0.29155719  0.80788684     0.09600
H1726       H  0.89029059  0.28583713  0.79357133     0.11700
H1727       H  0.89990985  0.22004374  0.79794535     0.08300
H1728       H  0.93457422  0.22583632  0.81196939     0.11100
C1729       C  0.23071137  0.24364899  0.79307301    -0.03500
C1730       C  0.22098797  0.22780554  0.80450973    -0.06100
C1731       C  0.20143541  0.23091839  0.81374952    -0.21200
C1732       C  0.19099362  0.24978914  0.81153008     0.24500
C1733       C  0.20060713  0.26563531  0.79999798    -0.18800
C1734       C  0.22032857  0.26260688  0.79094307    -0.08800
C1735       C  0.17091836  0.25281918  0.82275859    -0.19000
C1736       C  0.15639984  0.26685401  0.81741925    -0.23800
C1737       C  0.13712270  0.26961348  0.82996676     0.26600
C1738       C  0.11792248  0.27305436  0.82014346    -0.20600
C1739       C  0.09940681  0.27410311  0.83183450    -0.10200
C1740       C  0.09992329  0.27223607  0.85358456    -0.10800
C1741       C  0.11936385  0.26999838  0.86341433    -0.03700
C1742       C  0.13774302  0.26862288  0.85173564    -0.18800
H1743       H  0.22862149  0.21304533  0.80656704     0.10300
H1744       H  0.19446295  0.21854451  0.82273468     0.10300
H1745       H  0.19324619  0.28055495  0.79839973     0.10000
H1746       H  0.22740625  0.27507065  0.78219352     0.11100
H1747       H  0.16775499  0.24267829  0.83585967     0.11200
H1748       H  0.15809088  0.27569274  0.80318715     0.13100
H1749       H  0.11717866  0.27421795  0.80338481     0.09600
H1750       H  0.08469965  0.27616738  0.82385186     0.11700
H1751       H  0.12037711  0.26874870  0.88014791     0.08300
H1752       H  0.15245264  0.26665626  0.85974370     0.11100
C1753       C  0.07506855  0.67221788  0.07341288    -0.03500
C1754       C  0.09354027  0.66617392  0.06309314    -0.06100
C1755       C  0.09433660  0.66506015  0.04144269    -0.21200
C1756       C  0.07670223  0.66978356  0.02949890     0.24500
C1757       C  0.05813401  0.67572424  0.03978641    -0.18800
C1758       C  0.05732850  0.67683054  0.06149253    -0.08800
C1759       C  0.07875996  0.66937200  0.00644820    -0.19000
C1760       C  0.06235899  0.66813244  0.99346132    -0.23800
C1761       C  0.06399177  0.66880740  0.97034908     0.26600
C1762       C  0.04587663  0.66492282  0.95878554    -0.20600
C1763       C  0.04600058  0.66680342  0.93717408    -0.10200
C1764       C  0.06431207  0.67260418  0.92652413    -0.10800
C1765       C  0.08265582  0.67589303  0.93795803    -0.03700
C1766       C  0.08250599  0.67415582  0.95961507    -0.18800
H1767       H  0.10754291  0.66249516  0.07170990     0.10300
H1768       H  0.10887588  0.66058389  0.03397797     0.10300
H1769       H  0.04433899  0.68011293  0.03123503     0.10000
H1770       H  0.04289003  0.68166401  0.06889726     0.11100
H1771       H  0.09452785  0.66964626  0.00021138     0.11200
H1772       H  0.04677667  0.66634670  0.99996211     0.13100
H1773       H  0.03139789  0.66075772  0.96654244     0.09600
H1774       H  0.03162233  0.66400498  0.92885121     0.11700
H1775       H  0.09703387  0.68043946  0.93024404     0.08300
H1776       H  0.09681682  0.67762029  0.96768733     0.11100
C1777       C  0.90722567  0.72424352  0.20108083    -0.03500
C1778       C  0.91388210  0.73880178  0.18622673    -0.06100
C1779       C  0.93266621  0.73596772  0.17518522    -0.21200
C1780       C  0.94542111  0.71874441  0.17895992     0.24500
C1781       C  0.93894993  0.70437116  0.19405909    -0.18800
C1782       C  0.92015010  0.70709878  0.20495409    -0.08800
C1783       C  0.96470971  0.71550048  0.16618374    -0.19000
C1784       C  0.98147541  0.70505222  0.17327688    -0.23800
C1785       C  0.00070910  0.70035374  0.16088276     0.26600
C1786       C  0.01855233  0.69361109  0.17152251    -0.20600
C1787       C  0.03670088  0.68791501  0.16076172    -0.10200
C1788       C  0.03749084  0.68861335  0.13895230    -0.10800
C1789       C  0.01965802  0.69539553  0.12820362    -0.03700
C1790       C  0.00146365  0.70121531  0.13901989    -0.18800
H1791       H  0.90433924  0.75214018  0.18275388     0.10300
H1792       H  0.93719975  0.74721676  0.16356061     0.10300
H1793       H  0.94799618  0.69060122  0.19704262     0.10000
H1794       H  0.91557209  0.69549502  0.21619351     0.11100
H1795       H  0.96515229  0.72237314  0.15082519     0.11200
H1796       H  0.98138792  0.69992397  0.18933318     0.13100
H1797       H  0.01843057  0.69261198  0.18831676     0.09600
H1798       H  0.05005339  0.68271180  0.16960316     0.11700
H1799       H  0.01970513  0.69612914  0.11140433     0.08300
H1800       H  0.98797381  0.70587659  0.13013786     0.11100
C1801       C  0.11246821  0.67046130  0.13989852    -0.03500
C1802       C  0.11279950  0.67178400  0.16169669    -0.06100
C1803       C  0.13177677  0.67131721  0.17237528    -0.21200
C1804       C  0.15076810  0.66986264  0.16147835     0.24500
C1805       C  0.15044316  0.66743396  0.13980922    -0.18800
C1806       C  0.13149025  0.66767415  0.12914143    -0.08800
C1807       C  0.17067369  0.67221241  0.17288235    -0.19000
C1808       C  0.18661666  0.68320126  0.16488046    -0.23800
C1809       C  0.20506044  0.68924407  0.17715758     0.26600
C1810       C  0.21334723  0.70900499  0.17419340    -0.20600
C1811       C  0.23054797  0.71553575  0.18559969    -0.10200
C1812       C  0.24021775  0.70218597  0.19977411    -0.10800
C1813       C  0.23218938  0.68220854  0.20252924    -0.03700
C1814       C  0.21456336  0.67583563  0.19144634    -0.18800
H1815       H  0.09844486  0.67370131  0.17049613     0.10300
H1816       H  0.13167694  0.67303878  0.18910407     0.10300
H1817       H  0.16486042  0.66571394  0.13106500     0.10000
H1818       H  0.13184044  0.66631324  0.11238822     0.11100
H1819       H  0.17123060  0.66722982  0.18898558     0.11200
H1820       H  0.18497940  0.69014950  0.14961163     0.13100
H1821       H  0.20626492  0.71954950  0.16323278     0.09600
H1822       H  0.23649035  0.73097488  0.18310728     0.11700
H1823       H  0.23935589  0.67167061  0.21343380     0.08300
H1824       H  0.20858362  0.66040132  0.19379611     0.11100
C1825       C  0.13210644  0.98446398  0.71028257    -0.03500
C1826       C  0.12168541  0.00346261  0.71214489    -0.06100
C1827       C  0.09987616  0.00450729  0.71155782    -0.21200
C1828       C  0.08777775  0.98664046  0.70922386     0.24500
C1829       C  0.09813341  0.96756013  0.70725428    -0.18800
C1830       C  0.12004344  0.96651113  0.70782005    -0.08800
C1831       C  0.06459405  0.98898830  0.70821312    -0.19000
C1832       C  0.05073373  0.97349194  0.71075726    -0.23800
C1833       C  0.02753981  0.97616859  0.70967652     0.26600
C1834       C  0.01492553  0.95851836  0.70822299    -0.20600
C1835       C  0.99313075  0.96016808  0.70716951    -0.10200
C1836       C  0.98335715  0.97957250  0.70761370    -0.10800
C1837       C  0.99591906  0.99724202  0.70923324    -0.03700
C1838       C  0.01768229  0.99559778  0.71037812    -0.18800
H1839       H  0.13036360  0.01764921  0.71398950     0.10300
H1840       H  0.09240492  0.01943127  0.71296815     0.10300
H1841       H  0.08954514  0.95344224  0.70486782     0.10000
H1842       H  0.12752053  0.95162800  0.70616558     0.11100
H1843       H  0.05894441  0.00445136  0.70535703     0.11200
H1844       H  0.05643444  0.95802316  0.71362264     0.13100
H1845       H  0.02196927  0.94334030  0.70782969     0.09600
H1846       H  0.98396145  0.94620157  0.70605273     0.11700
H1847       H  0.98894160  0.01243588  0.70986278     0.08300
H1848       H  0.02646553  0.00966834  0.71214900     0.11100
C1849       C  0.26744407  0.81849409  0.73551819    -0.03500
C1850       C  0.24962879  0.82287295  0.74768436    -0.06100
C1851       C  0.23839650  0.84109065  0.74477599    -0.21200
C1852       C  0.24454810  0.85545512  0.72962647     0.24500
C1853       C  0.26238729  0.85110622  0.71738856    -0.18800
C1854       C  0.27372125  0.83287395  0.72038209    -0.08800
C1855       C  0.23137281  0.87420995  0.72680610    -0.19000
C1856       C  0.23665836  0.89045053  0.71482552    -0.23800
C1857       C  0.22308707  0.90888784  0.71223641     0.26600
C1858       C  0.23247548  0.92755523  0.70648653    -0.20600
C1859       C  0.22054239  0.94544698  0.70463012    -0.10200
C1860       C  0.19883142  0.94511307  0.70836317    -0.10800
C1861       C  0.18918624  0.92623005  0.71302937    -0.03700
C1862       C  0.20119342  0.90826679  0.71496946    -0.18800
H1863       H  0.24425782  0.81218911  0.75949800     0.10300
H1864       H  0.22471611  0.84390428  0.75438030     0.10300
H1865       H  0.26756847  0.86139814  0.70521958     0.10000
H1866       H  0.28724505  0.82992320  0.71061970     0.11100
H1867       H  0.21678225  0.87476063  0.73549195     0.11200
H1868       H  0.25187726  0.89095321  0.70735635     0.13100
H1869       H  0.24921644  0.92842723  0.70392040     0.09600
H1870       H  0.22846712  0.95967776  0.70067899     0.11700
H1871       H  0.17248359  0.92543676  0.71579691     0.08300
H1872       H  0.19324712  0.89399778  0.71859355     0.11100
C1873       C  0.28836355  0.13346114  0.74209799    -0.03500
C1874       C  0.29738913  0.11974636  0.72771915    -0.06100
C1875       C  0.28770734  0.10091737  0.72334359    -0.21200
C1876       C  0.26880836  0.09552648  0.73315231     0.24500
C1877       C  0.26062774  0.10859048  0.74858524    -0.18800
C1878       C  0.27022819  0.12734543  0.75292879    -0.08800
C1879       C  0.25791693  0.07625879  0.72710678    -0.19000
C1880       C  0.23694432  0.07424878  0.72862810    -0.23800
C1881       C  0.22490208  0.05527990  0.72367500     0.26600
C1882       C  0.20303696  0.05578858  0.72615905    -0.20600
C1883       C  0.19089198  0.03829540  0.72243083    -0.10200
C1884       C  0.20037399  0.01981172  0.71615782    -0.10800
C1885       C  0.22223624  0.01931192  0.71349030    -0.03700
C1886       C  0.23437293  0.03678732  0.71719066    -0.18800
H1887       H  0.31146922  0.12387915  0.71926110     0.10300
H1888       H  0.29458302  0.09089213  0.71172764     0.10300
H1889       H  0.24670029  0.10448501  0.75727191     0.10000
H1890       H  0.26306288  0.13729400  0.76443658     0.11100
H1891       H  0.26744649  0.06402083  0.72065567     0.11200
H1892       H  0.22781380  0.08740452  0.73378329     0.13100
H1893       H  0.19528733  0.06976356  0.73123611     0.09600
H1894       H  0.17413235  0.03918132  0.72478942     0.11700
H1895       H  0.23008523  0.00531891  0.70863798     0.08300
H1896       H  0.25108189  0.03546092  0.71510730     0.11100
C1897       C  0.98814047  0.97758452  0.30777326    -0.03500
C1898       C  0.99878844  0.95861411  0.30716751    -0.06100
C1899       C  0.02059596  0.95788081  0.30785383    -0.21200
C1900       C  0.03237908  0.97604235  0.30891383     0.24500
C1901       C  0.02180269  0.99506005  0.30995642    -0.18800
C1902       C  0.99991238  0.99580372  0.30935571    -0.08800
C1903       C  0.05557591  0.97434278  0.30905671    -0.19000
C1904       C  0.06839144  0.98930047  0.30198104    -0.23800
C1905       C  0.09162397  0.98750225  0.30049596     0.26600
C1906       C  0.10306332  0.00513284  0.29491757    -0.20600
C1907       C  0.12476602  0.00430017  0.29248455    -0.10200
C1908       C  0.13565697  0.98571113  0.29541512    -0.10800
C1909       C  0.12431763  0.96805060  0.30116609    -0.03700
C1910       C  0.10256868  0.96889057  0.30367846    -0.18800
H1911       H  0.99030035  0.94423926  0.30602592     0.10300
H1912       H  0.02832048  0.94303186  0.30719151     0.10300
H1913       H  0.03030118  0.00937125  0.31146574     0.10000
H1914       H  0.99223794  0.01066477  0.31001739     0.11100
H1915       H  0.06196932  0.95978635  0.31424002     0.11200
H1916       H  0.06156150  0.00355881  0.29638447     0.13100
H1917       H  0.09514922  0.01965462  0.29225920     0.09600
H1918       H  0.13294894  0.01822094  0.28797521     0.11700
H1919       H  0.13222030  0.95348867  0.30357608     0.08300
H1920       H  0.09460684  0.95477522  0.30770900     0.11100
C1921       C  0.92213091  0.94056373  0.29739057    -0.03500
C1922       C  0.90022764  0.93947607  0.29597137    -0.06100
C1923       C  0.89027264  0.92056525  0.29233508    -0.21200
C1924       C  0.90197043  0.90240010  0.28971490     0.24500
C1925       C  0.92383791  0.90342022  0.29143833    -0.18800
C1926       C  0.93375728  0.92221236  0.29524564    -0.08800
C1927       C  0.89101139  0.88249059  0.28602572    -0.19000
C1928       C  0.89962900  0.86693400  0.27502099    -0.23800
C1929       C  0.88907828  0.84681500  0.27145508     0.26600
C1930       C  0.89386414  0.83564320  0.25338792    -0.20600
C1931       C  0.88447723  0.81654935  0.24960212    -0.10200
C1932       C  0.87040286  0.80793110  0.26405419    -0.10800
C1933       C  0.86603635  0.81887279  0.28244109    -0.03700
C1934       C  0.87517277  0.83814858  0.28605641    -0.18800
H1935       H  0.89076615  0.95321247  0.29768875     0.10300
H1936       H  0.87337663  0.92015621  0.29133036     0.10300
H1937       H  0.93333345  0.88965979  0.29021650     0.10000
H1938       H  0.95063805  0.92229049  0.29647154     0.11100
H1939       H  0.87508669  0.88098348  0.29178923     0.11200
H1940       H  0.91467576  0.86929630  0.26746902     0.13100
H1941       H  0.90470773  0.84185452  0.24200402     0.09600
H1942       H  0.88824334  0.80853166  0.23532463     0.11700
H1943       H  0.85523586  0.81271621  0.29389021     0.08300
H1944       H  0.87156617  0.84607313  0.30041175     0.11100
C1945       C  0.92219476  0.01705373  0.30506967    -0.03500
C1946       C  0.93099299  0.03392831  0.31551989    -0.06100
C1947       C  0.92197901  0.05354751  0.31416277    -0.21200
C1948       C  0.90417336  0.05699802  0.30198546     0.24500
C1949       C  0.89487275  0.03996951  0.29208703    -0.18800
C1950       C  0.90372877  0.02019634  0.29373892    -0.08800
C1951       C  0.89596302  0.07853248  0.30009859    -0.19000
C1952       C  0.88495096  0.08544828  0.28365698    -0.23800
C1953       C  0.87835579  0.10740592  0.28067552     0.26600
C1954       C  0.87381433  0.11426166  0.26049549    -0.20600
C1955       C  0.86743996  0.13458180  0.25679530    -0.10200
C1956       C  0.86507375  0.14862714  0.27325869    -0.10800
C1957       C  0.86943924  0.14177264  0.29353413    -0.03700
C1958       C  0.87605194  0.12144729  0.29721558    -0.18800
H1959       H  0.94505634  0.03201172  0.32460763     0.10300
H1960       H  0.92933257  0.06623199  0.32221857     0.10300
H1961       H  0.88078577  0.04182321  0.28306648     0.10000
H1962       H  0.89651202  0.00750462  0.28558709     0.11100
H1963       H  0.90071845  0.08942111  0.31192094     0.11200
H1964       H  0.88178311  0.07490222  0.27100626     0.13100
H1965       H  0.87529032  0.10383822  0.24744949     0.09600
H1966       H  0.86405620  0.13918402  0.24099939     0.11700
H1967       H  0.86770939  0.15212166  0.30660510     0.08300
H1968       H  0.87890848  0.11675143  0.31306177     0.11100
C1969       C  0.82487021  0.91936887  0.00005813    -0.03500
C1970       C  0.82881545  0.93090048  0.98195855    -0.06100
C1971       C  0.82845243  0.95234954  0.98238641    -0.21200
C1972       C  0.82380583  0.96294585  0.00077409     0.24500
C1973       C  0.81964461  0.95156745  0.01896982    -0.18800
C1974       C  0.82021827  0.92994578  0.01860249    -0.08800
C1975       C  0.82406558  0.98579313  0.00002719    -0.19000
C1976       C  0.81304818  0.99812846  0.01284551    -0.23800
C1977       C  0.81243271  0.02088089  0.01000685     0.26600
C1978       C  0.80869417  0.03359700  0.02722323    -0.20600
C1979       C  0.80846650  0.05505375  0.02500725    -0.10200
C1980       C  0.81166728  0.06423498  0.00542365    -0.10800
C1981       C  0.81471037  0.05146311  0.98809242    -0.03700
C1982       C  0.81501612  0.03006765  0.99032380    -0.18800
H1983       H  0.83245356  0.92338918  0.96737804     0.10300
H1984       H  0.83173857  0.96073702  0.96817361     0.10300
H1985       H  0.81641678  0.95924691  0.03353674     0.10000
H1986       H  0.81715931  0.92154536  0.03284006     0.11100
H1987       H  0.83320456  0.99267332  0.98756880     0.11200
H1988       H  0.80421298  0.99154455  0.02567778     0.13100
H1989       H  0.80625349  0.02692267  0.04247528     0.09600
H1990       H  0.80574067  0.06443245  0.03864833     0.11700
H1991       H  0.81694637  0.05797853  0.97274787     0.08300
H1992       H  0.81697862  0.02082402  0.97649343     0.11100
C1993       C  0.81011755  0.12632564  0.96094797    -0.03500
C1994       C  0.80350313  0.14687449  0.95895080    -0.06100
C1995       C  0.80338147  0.15647126  0.93958189    -0.21200
C1996       C  0.81008384  0.14587701  0.92179259     0.24500
C1997       C  0.81654117  0.12522085  0.92369602    -0.18800
C1998       C  0.81650863  0.11553619  0.94311985    -0.08800
C1999       C  0.80918097  0.15675826  0.90157367    -0.19000
C2000       C  0.81999316  0.15105138  0.88452335    -0.23800
C2001       C  0.81850875  0.16255627  0.86468121     0.26600
C2002       C  0.83559951  0.16265129  0.85090297    -0.20600
C2003       C  0.83475836  0.17388972  0.83235967    -0.10200
C2004       C  0.81666645  0.18506019  0.82718157    -0.10800
C2005       C  0.79939042  0.18447512  0.84080059    -0.03700
C2006       C  0.80023607  0.17326268  0.85922755    -0.18800
H2007       H  0.79828196  0.15555619  0.97236633     0.10300
H2008       H  0.79810508  0.17230306  0.93851553     0.10300
H2009       H  0.82127745  0.11635043  0.91027304     0.10000
H2010       H  0.82166964  0.09968070  0.94420673     0.11100
H2011       H  0.79979492  0.17069472  0.90106178     0.11200
H2012       H  0.83105965  0.13840435  0.88530411     0.13100
H2013       H  0.84974087  0.15427242  0.85465299     0.09600
H2014       H  0.84827450  0.17386398  0.82214079     0.11700
H2015       H  0.78506036  0.19259883  0.83720518     0.08300
H2016       H  0.78642505  0.17284436  0.86901585     0.11100
C2017       C  0.81196200  0.13355633  0.03650311    -0.03500
C2018       C  0.80510591  0.15409158  0.03506141    -0.06100
C2019       C  0.80547981  0.16692989  0.05240813    -0.21200
C2020       C  0.81319154  0.15966780  0.07135305     0.24500
C2021       C  0.81988157  0.13906732  0.07290371    -0.18800
C2022       C  0.81922951  0.12612203  0.05562403    -0.08800
C2023       C  0.81395098  0.17386580  0.08926699    -0.19000
C2024       C  0.82954896  0.17307399  0.10313417    -0.23800
C2025       C  0.83129386  0.18656507  0.12163375     0.26600
C2026       C  0.84664094  0.18161709  0.13625122    -0.20600
C2027       C  0.84806552  0.19250088  0.15477901    -0.10200
C2028       C  0.83408066  0.20863398  0.15922936    -0.10800
C2029       C  0.81956210  0.21455486  0.14405999    -0.03700
C2030       C  0.81814904  0.20362796  0.12540634    -0.18800
H2031       H  0.79929042  0.16021932  0.02055095     0.10300
H2032       H  0.80009559  0.18269061  0.05094162     0.10300
H2033       H  0.82538694  0.13286396  0.08749262     0.10000
H2034       H  0.82460591  0.11037290  0.05718228     0.11100
H2035       H  0.80187247  0.18552565  0.09032983     0.11200
H2036       H  0.84174925  0.16159716  0.10099040     0.13100
H2037       H  0.85717406  0.16877778  0.13366591     0.09600
H2038       H  0.85963614  0.18766748  0.16598432     0.11700
H2039       H  0.80866557  0.22701972  0.14696103     0.08300
H2040       H  0.80648143  0.20844538  0.11436887     0.11100
C2041       C  0.25828400  0.04750568  0.99548552    -0.03500
C2042       C  0.25895633  0.03752580  0.97611153    -0.06100
C2043       C  0.25727268  0.01610802  0.97480299    -0.21200
C2044       C  0.25459803  0.00409306  0.99273597     0.24500
C2045       C  0.25367745  0.01401268  0.01215256    -0.18800
C2046       C  0.25546288  0.03548283  0.01348483    -0.08800
C2047       C  0.25407469  0.98129178  0.99052839    -0.19000
C2048       C  0.24510511  0.96851876  0.00448222    -0.23800
C2049       C  0.24582045  0.94568080  0.00265554     0.26600
C2050       C  0.24440554  0.93381367  0.02082228    -0.20600
C2051       C  0.24616025  0.91237621  0.02001909    -0.10200
C2052       C  0.24911714  0.90223214  0.00093867    -0.10800
C2053       C  0.24966672  0.91404515  0.98262127    -0.03700
C2054       C  0.24799807  0.93553140  0.98344649    -0.18800
H2055       H  0.26110050  0.04621461  0.96189162     0.10300
H2056       H  0.25815997  0.00886718  0.95967632     0.10300
H2057       H  0.25224332  0.00527845  0.02640276     0.10000
H2058       H  0.25500789  0.04260752  0.02866997     0.11100
H2059       H  0.26155135  0.97492012  0.97679777     0.11200
H2060       H  0.23769699  0.97486432  0.01826409     0.13100
H2061       H  0.24246463  0.94119960  0.03578458     0.09600
H2062       H  0.24546769  0.90379368  0.03443857     0.11700
H2063       H  0.25166748  0.90673647  0.96763687     0.08300
H2064       H  0.24834613  0.94405313  0.96900690     0.11100
C2065       C  0.26172509  0.83823696  0.96140996    -0.03500
C2066       C  0.26600338  0.81699059  0.96081986    -0.06100
C2067       C  0.27054884  0.80722986  0.94199514    -0.21200
C2068       C  0.27069574  0.81838178  0.92331889     0.24500
C2069       C  0.26619153  0.83958568  0.92382058    -0.18800
C2070       C  0.26169884  0.84937153  0.94264876    -0.08800
C2071       C  0.27678306  0.80765666  0.90386062    -0.19000
C2072       C  0.27102052  0.81405525  0.88483363    -0.23800
C2073       C  0.27759136  0.80328693  0.86556175     0.26600
C2074       C  0.26465754  0.80413199  0.84806813    -0.20600
C2075       C  0.27025628  0.79382268  0.82980185    -0.10200
C2076       C  0.28910475  0.78270560  0.82858581    -0.10800
C2077       C  0.30239586  0.78250061  0.84590866    -0.03700
C2078       C  0.29671154  0.79265372  0.86418555    -0.18800
H2079       H  0.26617313  0.80791312  0.97493848     0.10300
H2080       H  0.27409107  0.79090572  0.94203615     0.10300
H2081       H  0.26675192  0.84882786  0.90983725     0.10000
H2082       H  0.25863471  0.86577756  0.94251208     0.11100
H2083       H  0.28573309  0.79351671  0.90539871     0.11200
H2084       H  0.26030921  0.82693731  0.88328372     0.13100
H2085       H  0.25000893  0.81251184  0.84865499     0.09600
H2086       H  0.25980519  0.79454517  0.81665731     0.11700
H2087       H  0.31715349  0.77430928  0.84545631     0.08300
H2088       H  0.30743875  0.79232351  0.87710758     0.11100
C2089       C  0.29445745  0.78363719  0.16954120    -0.03500
C2090       C  0.30989291  0.79536899  0.15935367    -0.06100
C2091       C  0.30558448  0.80513478  0.14052855    -0.21200
C2092       C  0.28598649  0.80290757  0.13120631     0.24500
C2093       C  0.27045748  0.79123543  0.14133336    -0.18800
C2094       C  0.27460004  0.78184468  0.16046711    -0.08800
C2095       C  0.28190154  0.81370085  0.11139445    -0.19000
C2096       C  0.27080269  0.80524136  0.09593376    -0.23800
C2097       C  0.26715896  0.81627545  0.07611486     0.26600
C2098       C  0.26704391  0.80531198  0.05736501    -0.20600
C2099       C  0.26384962  0.81557511  0.03849967    -0.10200
C2100       C  0.26032782  0.83697545  0.03811337    -0.10800
C2101       C  0.25994269  0.84779200  0.05702532    -0.03700
C2102       C  0.26338798  0.83758382  0.07578519    -0.18800
H2103       H  0.32530533  0.79708657  0.16600870     0.10300
H2104       H  0.31769957  0.81420601  0.13304761     0.10300
H2105       H  0.25505968  0.78964744  0.13462533     0.10000
H2106       H  0.26243288  0.77284551  0.16794571     0.11100
H2107       H  0.28936624  0.82855567  0.10898504     0.11200
H2108       H  0.26525810  0.78948433  0.09740754     0.13100
H2109       H  0.26980947  0.78884667  0.05729506     0.09600
H2110       H  0.26422717  0.80675756  0.02424550     0.11700
H2111       H  0.25714230  0.86423961  0.05738501     0.08300
H2112       H  0.26285697  0.84635039  0.09006691    -0.01300
loop_ 
_geom_bond_atom_site_label_1 
_geom_bond_atom_site_label_2 
_geom_bond_distance 
_geom_bond_site_symmetry_2 
_ccdc_geom_bond_type 
C1            N2   1.361       .  A
C1            N6   1.361       .  A
C1         C2065   1.484       .  S
N2            C3   1.359   1_556  A
C3            N4   1.357       .  A
C3         C2052   1.485       .  S
N4            C5   1.358       .  A
C5            N6   1.359   1_554  A
C5         C2100   1.484       .  S
C7            N8   1.354   1_554  A
C7           N12   1.358       .  A
C7         C2017   1.476       .  S
N8            C9   1.355       .  A
C9           N10   1.359       .  A
C9         C1993   1.477       .  S
N10          C11   1.362   1_556  A
C11          N12   1.360       .  A
C11        C1980   1.483       .  S
C13          N14   1.367       .  A
C13          N18   1.362       .  A
C13        C1945   1.490   1_565  S
N14          C15   1.366       .  A
C15          N16   1.357       .  A
C15        C1921   1.492       .  S
N16          C17   1.355       .  A
C17          N18   1.359       .  A
C17        C1897   1.486       .  S
C19          N20   1.354       .  A
C19          N24   1.362       .  A
C19        C1860   1.482       .  S
N20          C21   1.352   1_565  A
C21          N22   1.359       .  A
C21        C1884   1.482       .  S
N22          C23   1.364   1_545  A
C23          N24   1.365       .  A
C23        C1825   1.490       .  S
C25          N26   1.359       .  A
C25          N30   1.357       .  A
C25        C1801   1.485       .  S
N26          C27   1.361       .  A
C27          N28   1.362       .  A
C27        C1788   1.489       .  S
N28          C29   1.362       .  A
C29          N30   1.358       .  A
C29        C1753   1.486       .  S
C31          N32   1.359       .  A
C31          N36   1.361       .  A
C31        C1705   1.479       .  S
N32          C33   1.357       .  A
C33          N34   1.356       .  A
C33        C1681   1.481       .  S
N34          C35   1.357       .  A
C35          N36   1.360       .  A
C35        C1740   1.480       .  S
C37          N38   1.358   1_554  A
C37          N42   1.363       .  A
C37        C1657   1.485       .  S
N38          C39   1.356       .  A
C39          N40   1.356       .  A
C39        C1644   1.483       .  S
N40          C41   1.360       .  A
C41          N42   1.362   1_556  A
C41        C1969   1.486   1_556  S
C43          N44   1.359       .  A
C43          N48   1.358       .  A
C43        C1585   1.484       .  S
N44          C45   1.361   1_556  A
C45          N46   1.362       .  A
C45        C1620   1.487       .  S
N46          C47   1.362   1_554  A
C47          N48   1.359       .  A
C47        C2041   1.488       .  S
C49          N50   1.360       .  A
C49          N54   1.356       .  A
C49        C1537   1.481       .  S
N50          C51   1.360       .  A
C51          N52   1.360   1_565  A
C51        C1836   1.485       .  S
N52          C53   1.358       .  A
C53          N54   1.356   1_545  A
C53        C1572   1.478       .  S
C55          N56   1.361       .  A
C55          N60   1.360       .  A
C55        C1500   1.483       .  S
N56          C57   1.361       .  A
C57          N58   1.358   1_565  A
C57        C1908   1.484       .  S
N58          C59   1.357       .  A
C59          N60   1.358   1_545  A
C59        C1513   1.483       .  S
C61          N62   1.362       .  A
C61          N66   1.359       .  A
C61        C1452   1.487       .  S
N62          C63   1.364       .  A
C63          N64   1.358       .  A
C63        C1476   1.483       .  S
N64          C65   1.355       .  A
C65          N66   1.357       .  A
C65        C1764   1.482       .  S
C67          N68   1.362       .  A
C67          N72   1.357       .  A
C67        C1428   1.482       .  S
N68          C69   1.361       .  A
C69          N70   1.358       .  A
C69        C1393   1.480       .  S
N70          C71   1.356       .  A
C71          N72   1.356       .  A
C71        C1692   1.480       .  S
C73          N74   1.357       .  A
C73          N78   1.355       .  A
C73        C1356   1.481       .  S
N74          C75   1.359       .  A
C75          N76   1.363       .  A
C75        C1332   1.486       .  S
N76          C77   1.363       .  A
C77          N78   1.358       .  A
C77        C1380   1.485       .  S
C79          N80   1.357       .  A
C79          N84   1.356       .  A
C79        C1273   1.482       .  S
N80          C81   1.359       .  A
C81          N82   1.362       .  A
C81        C1249   1.485       .  S
N82          C83   1.362       .  A
C83          N84   1.358       .  A
C83        C1297   1.485       .  S
C85          N86   1.357       .  A
C85          N90   1.357       .  A
C85        C1225   1.483       .  S
N86          C87   1.359       .  A
C87          N88   1.361       .  A
C87        C1177   1.484       .  S
N88          C89   1.361       .  A
C89          N90   1.359       .  A
C89        C1201   1.484       .  S
Zr91         O92   2.441       .  S
Zr91         O93   2.443       .  S
Zr91         O94   2.420       .  S
Zr91         O97   2.415       .  S
Zr91         O99   2.376       .  S
Zr91        O100   2.377       .  S
Zr91        O101   2.409       .  S
Zr91        O102   2.402       .  S
O92         H148   0.990       .  S
O92         H156   0.990       .  S
O93         C113   1.285       .  A
O94         C115   1.283       .  A
O95        Zr105   2.444       .  S
O95         C114   1.288       .  A
O96        Zr104   2.436       .  S
O96         C115   1.286       .  A
O97         C114   1.282       .  A
O98        Zr106   2.415       .  S
O98         C113   1.281       .  A
O99        Zr104   2.393       .  S
O99        Zr106   2.375       .  S
O100       Zr105   2.390       .  S
O100       Zr106   2.374       .  S
O100        H135   0.967       .  S
O101       Zr104   2.403       .  S
O101       Zr121   2.400       .  S
O101        H138   0.966       .  S
O102       Zr105   2.397       .  S
O102       Zr121   2.402       .  S
Zr103       O128   2.439       .  S
Zr103       O122   2.413       .  S
Zr103       O130   2.416       .  S
Zr103       O118   2.418       .  S
Zr103       O109   2.395       .  S
Zr103       O110   2.398       .  S
Zr103       O111   2.377       .  S
Zr103       O112   2.376       .  S
Zr104       O123   2.437       .  S
Zr104       O116   2.434       .  S
Zr104       O117   2.445       .  S
Zr104       O110   2.398       .  S
Zr104       O111   2.390       .  S
Zr105       O107   2.435       .  S
Zr105       O129   2.435       .  S
Zr105       O131   2.448       .  S
Zr105       O109   2.393       .  S
Zr105       O112   2.388       .  S
Zr106       O132   2.435       .  S
Zr106       O133   2.435       .  S
Zr106       O108   2.436       .  S
Zr106       O109   2.395       .  S
Zr106       O110   2.391       .  S
O107        H144   0.990       .  S
O108        H139   0.990       .  S
O108        H153   0.990       .  S
O110        H136   0.965       .  S
O111       Zr121   2.372       .  S
O112       Zr121   2.369       .  S
O112        H137   0.965       .  S
C113       C1596   1.481       .  S
C114       C1729   1.481       .  S
C115       C1873   1.482       .  S
O116        H152   0.990       .  S
O117        C119   1.287       .  A
O118        C119   1.282       .  A
C119       C1153   1.485       .  S
O120       Zr121   2.436       .  S
O120        H149   0.990       .  S
Zr121       O124   2.436       .  S
Zr121       O125   2.437       .  S
Zr121       O126   2.436       .  S
O122        C127   1.281       .  A
O123        H140   0.990       .  S
O123        H155   0.990       .  S
O124        H141   0.990       .  S
O125        H145   0.990       .  S
O125        H154   0.990       .  S
O126        C127   1.285       .  A
C127       C1236   1.483       .  S
O128        H147   0.990       .  S
O128        H151   0.991       .  S
O129        H143   0.990       .  S
O129        H150   0.990       .  S
O130        C134   1.283       .  A
O131        C134   1.288       .  A
O132        H142   0.990       .  S
O133        H146   0.990       .  S
C134       C1345   1.484       .  S
C157        N158   1.354       .  A
C157        N162   1.356       .  A
C157       C1116   1.478       .  S
N158        C159   1.356       .  A
C159        N160   1.360       .  A
C159       C1129   1.480       .  S
N160        C161   1.362       .  A
C161        N162   1.359       .  A
C161       C1081   1.482       .  S
C163        N164   1.362       .  A
C163        N168   1.364       .  A
C163       C1057   1.486       .  S
N164        C165   1.357       .  A
C165        N166   1.353       .  A
C165       C1033   1.482       .  S
N166        C167   1.355       .  A
C167        N168   1.362       .  A
C167       C1164   1.482       .  S
Zr169       O170   2.444       .  S
Zr169       O171   2.437       .  S
Zr169       O172   2.437       .  S
Zr169       O175   2.429       .  S
Zr169       O177   2.377       .  S
Zr169       O178   2.382       .  S
Zr169       O179   2.405       .  S
Zr169       O180   2.400       .  S
O170        H226   0.991       .  S
O170        H234   0.991       .  S
O171        C191   1.284       .  A
O172        C193   1.284       .  A
O173       Zr183   2.421       .  S
O173        C192   1.283       .  A
O174       Zr182   2.428       .  S
O174        C193   1.284       .  A
O175        C192   1.285       .  A
O176       Zr184   2.407       .  S
O176        C191   1.280       .  A
O177       Zr182   2.396       .  S
O177       Zr184   2.379       .  S
O178       Zr183   2.393       .  S
O178       Zr184   2.377       .  S
O178        H213   0.967       .  S
O179       Zr182   2.403       .  S
O179       Zr199   2.390       .  S
O179        H216   0.965       .  S
O180       Zr183   2.390       .  S
O180       Zr199   2.392       .  S
Zr181       O206   2.442       .  S
Zr181       O200   2.432       .  S
Zr181       O208   2.434       .  S
Zr181       O196   2.431       .  S
Zr181       O187   2.402       .  S
Zr181       O188   2.401       .  S
Zr181       O189   2.379       .  S
Zr181       O190   2.384       .  S
Zr182       O201   2.435       .  S
Zr182       O194   2.434       .  S
Zr182       O195   2.436       .  S
Zr182       O188   2.396       .  S
Zr182       O189   2.390       .  S
Zr183       O185   2.439       .  S
Zr183       O207   2.436       .  S
Zr183       O209   2.423       .  S
Zr183       O187   2.393       .  S
Zr183       O190   2.394       .  S
Zr184       O210   2.436       .  S
Zr184       O211   2.436       .  S
Zr184       O186   2.436       .  S
Zr184       O187   2.390       .  S
Zr184       O188   2.383       .  S
O185        H222   0.990       .  S
O186        H217   0.990       .  S
O186        H231   0.990       .  S
O188        H214   0.966       .  S
O189       Zr199   2.376       .  S
O190       Zr199   2.380       .  S
O190        H215   0.966       .  S
C191       C2004   1.481       .  S
C192       C1561   1.479       .  S
C193       C1716   1.483       .  S
O194        H230   0.990       .  S
O195        C197   1.286       .  A
O196        C197   1.285       .  A
C197       C1020   1.485       .  S
O198       Zr199   2.437       .  S
O198        H227   0.990       .  S
Zr199       O202   2.436       .  S
Zr199       O203   2.439       .  S
Zr199       O204   2.416       .  S
O200        C205   1.283       .  A
O201        H218   0.990       .  S
O201        H233   0.990       .  S
O202        H219   0.990       .  S
O203        H223   0.990       .  S
O203        H232   0.990       .  S
O204        C205   1.282       .  A
C205       C1140   1.483       .  S
O206        H225   0.990       .  S
O206        H229   0.990       .  S
O207        H221   0.990       .  S
O207        H228   0.990       .  S
O208        C212   1.284       .  A
O209        C212   1.282       .  A
O210        H220   0.991       .  S
O211        H224   0.990       .  S
C212       C1068   1.481       .  S
C235        N236   1.360       .  A
C235        N240   1.361       .  A
C235        C996   1.483       .  S
N236        C237   1.358       .  A
C237        N238   1.358       .  A
C237       C1188   1.483       .  S
N238        C239   1.358       .  A
C239        N240   1.360       .  A
C239        C961   1.484       .  S
Zr241       O242   2.439       .  S
Zr241       O243   2.426       .  S
Zr241       O244   2.422       .  S
Zr241       O247   2.417       .  S
Zr241       O249   2.376       .  S
Zr241       O250   2.379       .  S
Zr241       O251   2.395       .  S
Zr241       O252   2.391       .  S
O242        H298   0.990       .  S
O242        H306   0.991       .  S
O243        C263   1.284       .  A
O244        C265   1.283       .  A
O245       Zr255   2.434       .  S
O245        C264   1.286       .  A
O246       Zr254   2.445       .  S
O246        C265   1.288       .  A
O247        C264   1.284       .  A
O248       Zr256   2.433       .  S
O248        C263   1.284       .  A
O249       Zr254   2.390       .  S
O249       Zr256   2.375       .  S
O250       Zr255   2.393       .  S
O250       Zr256   2.375       .  S
O250        H285   0.963       .  S
O251       Zr254   2.398       .  S
O251       Zr271   2.390       .  S
O251        H288   0.966       .  S
O252       Zr255   2.388       .  S
O252       Zr271   2.388       .  S
Zr253       O278   2.440       .  S
Zr253       O272   2.434       .  S
Zr253       O280   2.414       .  S
Zr253       O268   2.409       .  S
Zr253       O259   2.394       .  S
Zr253       O260   2.403       .  S
Zr253       O261   2.377       .  S
Zr253       O262   2.373       .  S
Zr254       O273   2.436       .  S
Zr254       O266   2.436       .  S
Zr254       O267   2.446       .  S
Zr254       O260   2.397       .  S
Zr254       O261   2.395       .  S
Zr255       O257   2.435       .  S
Zr255       O279   2.435       .  S
Zr255       O281   2.448       .  S
Zr255       O259   2.386       .  S
Zr255       O262   2.384       .  S
Zr256       O282   2.435       .  S
Zr256       O283   2.438       .  S
Zr256       O258   2.440       .  S
Zr256       O259   2.398       .  S
Zr256       O260   2.402       .  S
O257        H294   0.990       .  S
O258        H289   0.990       .  S
O258        H303   0.991       .  S
O260        H286   0.966       .  S
O261       Zr271   2.376       .  S
O262       Zr271   2.378       .  S
O262        H287   0.966       .  S
C263        C985   1.480       .  S
C264        C937   1.481       .  S
C265       C1369   1.486       .  S
O266        H302   0.990       .  S
O267        C269   1.287       .  A
O268        C269   1.281       .  A
C269       C1465   1.479       .  S
O270       Zr271   2.436       .  S
O270        H299   0.990       .  S
Zr271       O274   2.436       .  S
Zr271       O275   2.439       .  S
Zr271       O276   2.419       .  S
O272        C277   1.285       .  A
O273        H290   0.990       .  S
O273        H305   0.990       .  S
O274        H291   0.990       .  S
O275        H295   0.990       .  S
O275        H304   0.990       .  S
O276        C277   1.282       .  A
C277       C2076   1.482       .  S
O278        H297   0.990       .  S
O278        H301   0.990       .  S
O279        H293   0.990       .  S
O279        H300   0.990       .  S
O280        C284   1.283       .  A
O281        C284   1.288       .  A
O282        H292   0.990       .  S
O283        H296   0.990       .  S
C284       C1849   1.486       .  S
C307        N308   1.359       .  A
C307        N312   1.362       .  A
C307       C1009   1.485       .  S
N308        C309   1.357       .  A
C309        N310   1.356       .  A
C309        C913   1.481       .  S
N310        C311   1.358       .  A
C311        N312   1.361       .  A
C311       C1321   1.486       .  S
C313        N314   1.358       .  A
C313        N318   1.356       .  A
C313        C889   1.478       .  S
N314        C315   1.360       .  A
C315        N316   1.361       .  A
C315        C948   1.483       .  S
N316        C317   1.360       .  A
C317        N318   1.357       .  A
C317        C865   1.484       .  S
C319        N320   1.361       .  A
C319        N324   1.364       .  A
C319        C841   1.483       .  S
N320        C321   1.357       .  A
C321        N322   1.353       .  A
C321        C817   1.478       .  S
N322        C323   1.354       .  A
C323        N324   1.361       .  A
C323       C1092   1.484       .  S
Zr325       O326   2.441       .  S
Zr325       O327   2.430       .  S
Zr325       O328   2.425       .  S
Zr325       O331   2.429       .  S
Zr325       O333   2.379       .  S
Zr325       O334   2.383       .  S
Zr325       O335   2.404       .  S
Zr325       O336   2.393       .  S
O326        H382   0.990       .  S
O326        H390   0.990       .  S
O327        C347   1.283       .  A
O328        C349   1.283       .  A
O329       Zr339   2.428       .  S
O329        C348   1.284       .  A
O330       Zr338   2.448       .  S
O330        C349   1.288       .  A
O331        C348   1.285       .  A
O332       Zr340   2.411       .  S
O332        C347   1.280       .  A
O333       Zr338   2.395       .  S
O333       Zr340   2.374       .  S
O334       Zr339   2.398       .  S
O334       Zr340   2.375       .  S
O334        H369   0.967       .  S
O335       Zr338   2.406       .  S
O335       Zr355   2.391       .  S
O335        H372   0.967       .  S
O336       Zr339   2.392       .  S
O336       Zr355   2.392       .  S
Zr337       O362   2.442       .  S
Zr337       O356   2.443       .  S
Zr337       O364   2.426       .  S
Zr337       O352   2.410       .  S
Zr337       O343   2.401       .  S
Zr337       O344   2.404       .  S
Zr337       O345   2.378       .  S
Zr337       O346   2.374       .  S
Zr338       O357   2.436       .  S
Zr338       O350   2.436       .  S
Zr338       O351   2.451       .  S
Zr338       O344   2.400       .  S
Zr338       O345   2.399       .  S
Zr339       O341   2.434       .  S
Zr339       O363   2.440       .  S
Zr339       O365   2.435       .  S
Zr339       O343   2.398       .  S
Zr339       O346   2.388       .  S
Zr340       O366   2.435       .  S
Zr340       O367   2.435       .  S
Zr340       O342   2.440       .  S
Zr340       O343   2.396       .  S
Zr340       O344   2.392       .  S
O341        H378   0.990       .  S
O342        H373   0.990       .  S
O342        H387   0.990       .  S
O344        H370   0.967       .  S
O345       Zr355   2.374       .  S
O346       Zr355   2.379       .  S
O346        H371   0.967       .  S
C347        C828   1.474       .  S
C348        C924   1.484       .  S
C349        C900   1.487       .  S
O350        H386   0.990       .  S
O351        C353   1.288       .  A
O352        C353   1.281       .  A
C353       C1548   1.484       .  S
O354       Zr355   2.434       .  S
O354        H383   0.990       .  S
Zr355       O358   2.436       .  S
Zr355       O359   2.437       .  S
Zr355       O360   2.416       .  S
O356        C361   1.286       .  A
O357        H374   0.990       .  S
O357        H389   0.990       .  S
O358        H375   0.990       .  S
O359        H379   0.990       .  S
O359        H388   0.990       .  S
O360        C361   1.281       .  A
C361       C1633   1.484       .  S
O362        H381   0.990       .  S
O362        H385   0.990       .  S
O363        H377   0.990       .  S
O363        H384   0.990       .  S
O364        C368   1.283       .  A
O365        C368   1.285       .  A
O366        H376   0.990       .  S
O367        H380   0.990       .  S
C368       C1441   1.486       .  S
C391        N392   1.356       .  A
C391        N396   1.358       .  A
C391        C793   1.479       .  S
N392        C393   1.357       .  A
C393        N394   1.359       .  A
C393        C769   1.481       .  S
N394        C395   1.360       .  A
C395        N396   1.360       .  A
C395       C1044   1.481       .  S
Zr397       O398   2.443       .  S
Zr397       O399   2.428       .  S
Zr397       O400   2.449       .  S
Zr397       O403   2.428       .  S
Zr397       O405   2.382       .  S
Zr397       O406   2.385       .  S
Zr397       O407   2.403       .  S
Zr397       O408   2.401       .  S
O398        H454   0.991       .  S
O398        H462   0.990       .  S
O399        C419   1.282       .  A
O400        C421   1.286       .  A
O401       Zr411   2.420       .  S
O401        C420   1.284       .  A
O402       Zr410   2.434       .  S
O402        C421   1.285       .  A
O403        C420   1.285       .  A
O404       Zr412   2.420       .  S
O404        C419   1.281       .  A
O405       Zr410   2.402       .  S
O405       Zr412   2.382       .  S
O406       Zr411   2.399       .  S
O406       Zr412   2.374       .  S
O406        H441   0.966       .  S
O407       Zr410   2.398       .  S
O407       Zr427   2.390       .  S
O407        H444   0.966       .  S
O408       Zr411   2.395       .  S
O408       Zr427   2.384       .  S
Zr409       O434   2.443       .  S
Zr409       O428   2.437       .  S
Zr409       O436   2.447       .  S
Zr409       O424   2.426       .  S
Zr409       O415   2.394       .  S
Zr409       O416   2.416       .  S
Zr409       O417   2.381       .  S
Zr409       O418   2.379       .  S
Zr410       O429   2.435       .  S
Zr410       O422   2.435       .  S
Zr410       O423   2.429       .  S
Zr410       O416   2.405       .  S
Zr410       O417   2.394       .  S
Zr411       O413   2.435       .  S
Zr411       O435   2.436       .  S
Zr411       O437   2.442       .  S
Zr411       O415   2.382       .  S
Zr411       O418   2.395       .  S
Zr412       O438   2.438       .  S
Zr412       O439   2.434       .  S
Zr412       O414   2.437       .  S
Zr412       O415   2.389       .  S
Zr412       O416   2.392       .  S
O413        H450   0.990       .  S
O414        H445   0.990       .  S
O414        H459   0.990       .  S
O416        H442   0.965       .  S
O417       Zr427   2.378       .  S
O418       Zr427   2.385       .  S
O418        H443   0.970       .  S
C419        C780   1.481       .  S
C420       C1105   1.476       .  S
C421        C745   1.488       .  S
O422        H458   0.990       .  S
O423        C425   1.284       .  A
O424        C425   1.282       .  A
C425       C2028   1.478       .  S
O426       Zr427   2.435       .  S
O426        H455   0.990       .  S
Zr427       O430   2.436       .  S
Zr427       O431   2.437       .  S
Zr427       O432   2.408       .  S
O428        C433   1.283       .  A
O429        H446   0.990       .  S
O429        H461   0.990       .  S
O430        H447   0.990       .  S
O431        H451   0.990       .  S
O431        H460   0.990       .  S
O432        C433   1.279       .  A
C433       C1404   1.481       .  S
O434        H453   0.990       .  S
O434        H457   0.991       .  S
O435        H449   0.990       .  S
O435        H456   0.990       .  S
O436        C440   1.287       .  A
O437        C440   1.286       .  A
O438        H448   0.990       .  S
O439        H452   0.991       .  S
C440       C1956   1.493       .  S
C463        N464   1.358       .  A
C463        N468   1.358       .  A
C463        C708   1.484       .  S
N464        C465   1.358       .  A
C465        N466   1.362       .  A
C465        C721   1.490       .  S
N466        C467   1.364       .  A
C467        N468   1.360       .  A
C467        C876   1.487       .  S
C469        N470   1.360       .  A
C469        N474   1.366       .  A
C469        C673   1.484       .  S
N470        C471   1.356       .  A
C471        N472   1.355       .  A
C471       C1260   1.485       .  S
N472        C473   1.358       .  A
C473        N474   1.364       .  A
C473        C756   1.489       .  S
Zr475       O476   2.441       .  S
Zr475       O477   2.453       .  S
Zr475       O478   2.448       .  S
Zr475       O481   2.420       .  S
Zr475       O483   2.378       .  S
Zr475       O484   2.384       .  S
Zr475       O485   2.408       .  S
Zr475       O486   2.405       .  S
O476        H532   0.990       .  S
O476        H540   0.990       .  S
O477        C497   1.287       .  A
O478        C499   1.286       .  A
O479       Zr489   2.443       .  S
O479        C498   1.287       .  A
O480       Zr488   2.433       .  S
O480        C499   1.284       .  A
O481        C498   1.283       .  A
O482       Zr490   2.425       .  S
O482        C497   1.282       .  A
O483       Zr488   2.400       .  S
O483       Zr490   2.381       .  S
O484       Zr489   2.397       .  S
O484       Zr490   2.380       .  S
O484        H519   0.966       .  S
O485       Zr488   2.403       .  S
O485       Zr505   2.401       .  S
O485        H522   0.965       .  S
O486       Zr489   2.388       .  S
O486       Zr505   2.387       .  S
Zr487       O512   2.442       .  S
Zr487       O506   2.446       .  S
Zr487       O514   2.432       .  S
Zr487       O502   2.432       .  S
Zr487       O493   2.401       .  S
Zr487       O494   2.409       .  S
Zr487       O495   2.374       .  S
Zr487       O496   2.382       .  S
Zr488       O507   2.435       .  S
Zr488       O500   2.437       .  S
Zr488       O501   2.430       .  S
Zr488       O494   2.402       .  S
Zr488       O495   2.394       .  S
Zr489       O491   2.436       .  S
Zr489       O513   2.437       .  S
Zr489       O515   2.435       .  S
Zr489       O493   2.391       .  S
Zr489       O496   2.399       .  S
Zr490       O516   2.436       .  S
Zr490       O517   2.435       .  S
Zr490       O492   2.437       .  S
Zr490       O493   2.394       .  S
Zr490       O494   2.400       .  S
O491        H528   0.990       .  S
O492        H523   0.990       .  S
O492        H537   0.990       .  S
O494        H520   0.966       .  S
O495       Zr505   2.374       .  S
O496       Zr505   2.379       .  S
O496        H521   0.966       .  S
C497       C1777   1.493       .  S
C498       C1668   1.484       .  S
C499       C1932   1.487       .  S
O500        H536   0.990       .  S
O501        C503   1.284       .  A
O502        C503   1.283       .  A
C503        C852   1.474       .  S
O504       Zr505   2.433       .  S
O504        H533   0.990       .  S
Zr505       O508   2.435       .  S
Zr505       O509   2.438       .  S
Zr505       O510   2.419       .  S
O506        C511   1.286       .  A
O507        H524   0.990       .  S
O507        H539   0.990       .  S
O508        H525   0.990       .  S
O509        H529   0.990       .  S
O509        H538   0.990       .  S
O510        C511   1.281       .  A
C511        C732   1.489       .  S
O512        H531   0.990       .  S
O512        H535   0.991       .  S
O513        H527   0.990       .  S
O513        H534   0.990       .  S
O514        C518   1.286       .  A
O515        C518   1.286       .  A
O516        H526   0.990       .  S
O517        H530   0.990       .  S
C518        C684   1.487       .  S
Zr541       O542   2.441       .  S
Zr541       O543   2.433       .  S
Zr541       O544   2.431       .  S
Zr541       O547   2.417       .  S
Zr541       O549   2.380       .  S
Zr541       O550   2.381       .  S
Zr541       O551   2.401       .  S
Zr541       O552   2.398       .  S
O542        H598   0.990       .  S
O542        H606   0.990       .  S
O543        C563   1.284       .  A
O544        C565   1.284       .  A
O545       Zr555   2.435       .  S
O545        C564   1.285       .  A
O546       Zr554   2.429       .  S
O546        C565   1.285       .  A
O547        C564   1.283       .  A
O548       Zr556   2.422       .  S
O548        C563   1.282       .  A
O549       Zr554   2.395       .  S
O549       Zr556   2.379       .  S
O550       Zr555   2.393       .  S
O550       Zr556   2.373       .  S
O550        H585   0.965       .  S
O551       Zr554   2.399       .  S
O551       Zr571   2.392       .  S
O551        H588   0.967       .  S
O552       Zr555   2.393       .  S
O552       Zr571   2.391       .  S
Zr553       O578   2.447       .  S
Zr553       O572   2.441       .  S
Zr553       O580   2.411       .  S
Zr553       O568   2.413       .  S
Zr553       O559   2.402       .  S
Zr553       O560   2.399       .  S
Zr553       O561   2.375       .  S
Zr553       O562   2.379       .  S
Zr554       O573   2.437       .  S
Zr554       O566   2.434       .  S
Zr554       O567   2.441       .  S
Zr554       O560   2.389       .  S
Zr554       O561   2.390       .  S
Zr555       O557   2.436       .  S
Zr555       O579   2.437       .  S
Zr555       O581   2.443       .  S
Zr555       O559   2.391       .  S
Zr555       O562   2.390       .  S
Zr556       O582   2.435       .  S
Zr556       O583   2.435       .  S
Zr556       O558   2.438       .  S
Zr556       O559   2.398       .  S
Zr556       O560   2.395       .  S
O557        H594   0.990       .  S
O558        H589   0.990       .  S
O558        H603   0.990       .  S
O560        H586   0.967       .  S
O561       Zr571   2.378       .  S
O562       Zr571   2.372       .  S
O562        H587   0.967       .  S
C563       C2089   1.479       .  S
C564       C1812   1.475       .  S
C565       C1489   1.483       .  S
O566        H602   0.990       .  S
O567        C569   1.286       .  A
O568        C569   1.282       .  A
C569        C697   1.482       .  S
O570       Zr571   2.439       .  S
O570        H599   0.990       .  S
Zr571       O574   2.438       .  S
Zr571       O575   2.439       .  S
Zr571       O576   2.425       .  S
O572        C577   1.286       .  A
O573        H590   0.990       .  S
O573        H605   0.990       .  S
O574        H591   0.990       .  S
O575        H595   0.990       .  S
O575        H604   0.990       .  S
O576        C577   1.284       .  A
C577        C972   1.486       .  S
O578        H597   0.990       .  S
O578        H601   0.990       .  S
O579        H593   0.990       .  S
O579        H600   0.990       .  S
O580        C584   1.282       .  A
O581        C584   1.287       .  A
O582        H592   0.990       .  S
O583        H596   0.990       .  S
C584       C1308   1.483       .  S
Zr607       O608   2.438       .  S
Zr607       O609   2.440       .  S
Zr607       O610   2.425       .  S
Zr607       O613   2.414       .  S
Zr607       O615   2.374       .  S
Zr607       O616   2.377       .  S
Zr607       O617   2.405       .  S
Zr607       O618   2.404       .  S
O608        H664   0.990       .  S
O608        H672   0.990       .  S
O609        C629   1.286       .  A
O610        C631   1.284       .  A
O611       Zr621   2.446       .  S
O611        C630   1.288       .  A
O612       Zr620   2.434       .  S
O612        C631   1.285       .  A
O613        C630   1.282       .  A
O614       Zr622   2.429       .  S
O614        C629   1.284       .  A
O615       Zr620   2.392       .  S
O615       Zr622   2.378       .  S
O616       Zr621   2.380       .  S
O616       Zr622   2.374       .  S
O616        H651   0.966       .  S
O617       Zr620   2.397       .  S
O617       Zr637   2.407       .  S
O617        H654   0.966       .  S
O618       Zr621   2.387       .  S
O618       Zr637   2.399       .  S
Zr619       O644   2.441       .  S
Zr619       O638   2.421       .  S
Zr619       O646   2.424       .  S
Zr619       O634   2.431       .  S
Zr619       O625   2.402       .  S
Zr619       O626   2.400       .  S
Zr619       O627   2.372       .  S
Zr619       O628   2.384       .  S
Zr620       O639   2.436       .  S
Zr620       O632   2.434       .  S
Zr620       O633   2.431       .  S
Zr620       O626   2.396       .  S
Zr620       O627   2.391       .  S
Zr621       O623   2.438       .  S
Zr621       O645   2.435       .  S
Zr621       O647   2.420       .  S
Zr621       O625   2.398       .  S
Zr621       O628   2.395       .  S
Zr622       O648   2.437       .  S
Zr622       O649   2.435       .  S
Zr622       O624   2.436       .  S
Zr622       O625   2.392       .  S
Zr622       O626   2.397       .  S
O623        H660   0.990       .  S
O624        H655   0.991       .  S
O624        H669   0.990       .  S
O626        H652   0.966       .  S
O627       Zr637   2.375       .  S
O628       Zr637   2.374       .  S
O628        H653   0.965       .  S
C629       C1212   1.489       .  S
C630        C804   1.485       .  S
C631       C1284   1.483       .  S
O632        H668   0.990       .  S
O633        C635   1.285       .  A
O634        C635   1.285       .  A
C635       C1417   1.486       .  S
O636       Zr637   2.438       .  S
O636        H665   0.991       .  S
Zr637       O640   2.436       .  S
Zr637       O641   2.439       .  S
Zr637       O642   2.439       .  S
O638        C643   1.282       .  A
O639        H656   0.990       .  S
O639        H671   0.990       .  S
O640        H657   0.990       .  S
O641        H661   0.990       .  S
O641        H670   0.990       .  S
O642        C643   1.286       .  A
C643       C1609   1.487       .  S
O644        H663   0.991       .  S
O644        H667   0.990       .  S
O645        H659   0.990       .  S
O645        H666   0.990       .  S
O646        C650   1.283       .  A
O647        C650   1.283       .  A
O648        H658   0.990       .  S
O649        H662   0.991       .  S
C650       C1524   1.478       .  S
C673        C674   1.405       .  A
C673        C678   1.407       .  A
C674        C675   1.401       .  A
C674        H687   1.083       .  S
C675        C676   1.405       .  A
C675        H688   1.083       .  S
C676        C677   1.405       .  A
C676        C679   1.486       .  S
C677        C678   1.397       .  A
C677        H689   1.082       .  S
C678        H690   1.083       .  S
C679        C680   1.348       .  D
C679        H691   1.086       .  S
C680        C681   1.485       .  S
C680        H692   1.086       .  S
C681        C682   1.403       .  A
C681        C686   1.405       .  A
C682        C683   1.401       .  A
C682        H693   1.083       .  S
C683        C684   1.408       .  A
C683        H694   1.083       .  S
C684        C685   1.407       .  A
C685        C686   1.397       .  A
C685        H695   1.083       .  S
C686        H696   1.082       .  S
C697        C698   1.408       .  A
C697        C702   1.407       .  A
C698        C699   1.402       .  A
C698        H711   1.083       .  S
C699        C700   1.402       .  A
C699        H712   1.083       .  S
C700        C701   1.404       .  A
C700        C703   1.480       .  S
C701        C702   1.391       .  A
C701        H713   1.083       .  S
C702        H714   1.083       .  S
C703        C704   1.345       .  D
C703        H715   1.085       .  S
C704        C705   1.481       .  S
C704        H716   1.088       .  S
C705        C706   1.401       .  A
C705        C710   1.407       .  A
C706        C707   1.393       .  A
C706        H717   1.084       .  S
C707        C708   1.405       .  A
C707        H718   1.083       .  S
C708        C709   1.408       .  A
C709        C710   1.401       .  A
C709        H719   1.083       .  S
C710        H720   1.082       .  S
C721        C722   1.409       .  A
C721        C726   1.407       .  A
C722        C723   1.399       .  A
C722        H735   1.083       .  S
C723        C724   1.402       .  A
C723        H736   1.083       .  S
C724        C725   1.408       .  A
C724        C727   1.491       .  S
C725        C726   1.403       .  A
C725        H737   1.082       .  S
C726        H738   1.083       .  S
C727        C728   1.349       .  D
C727        H739   1.086       .  S
C728        C729   1.492       .  S
C728        H740   1.086       .  S
C729        C730   1.405       .  A
C729        C734   1.408       .  A
C730        C731   1.401       .  A
C730        H741   1.083       .  S
C731        C732   1.406       .  A
C731        H742   1.083       .  S
C732        C733   1.409       .  A
C733        C734   1.401       .  A
C733        H743   1.083       .  S
C734        H744   1.082       .  S
C745        C746   1.408       .  A
C745        C750   1.406       .  A
C746        C747   1.401       .  A
C746        H759   1.083       .  S
C747        C748   1.403       .  A
C747        H760   1.083       .  S
C748        C749   1.409       .  A
C748        C751   1.493       .  S
C749        C750   1.401       .  A
C749        H761   1.082       .  S
C750        H762   1.083       .  S
C751        C752   1.347       .  D
C751        H763   1.085       .  S
C752        C753   1.492       .  S
C752        H764   1.086       .  S
C753        C754   1.401       .  A
C753        C758   1.411       .  A
C754        C755   1.393       .  A
C754        H765   1.084       .  S
C755        C756   1.407       .  A
C755        H766   1.083       .  S
C756        C757   1.408       .  A
C757        C758   1.408       .  A
C757        H767   1.083       .  S
C758        H768   1.081       .  S
C769        C770   1.407       .  A
C769        C774   1.406       .  A
C770        C771   1.395       .  A
C770        H783   1.083       .  S
C771        C772   1.400       .  A
C771        H784   1.083       .  S
C772        C773   1.406       .  A
C772        C775   1.477       .  S
C773        C774   1.397       .  A
C773        H785   1.083       .  S
C774        H786   1.083       .  S
C775        C776   1.344       .  D
C775        H787   1.086       .  S
C776        C777   1.480       .  S
C776        H788   1.087       .  S
C777        C778   1.402       .  A
C777        C782   1.405       .  A
C778        C779   1.398       .  A
C778        H789   1.083       .  S
C779        C780   1.407       .  A
C779        H790   1.083       .  S
C780        C781   1.406       .  A
C781        C782   1.395       .  A
C781        H791   1.083       .  S
C782        H792   1.082       .  S
C793        C794   1.405       .  A
C793        C798   1.406       .  A
C794        C795   1.399       .  A
C794        H807   1.083       .  S
C795        C796   1.403       .  A
C795        H808   1.083       .  S
C796        C797   1.406       .  A
C796        C799   1.482       .  S
C797        C798   1.396       .  A
C797        H809   1.083       .  S
C798        H810   1.083       .  S
C799        C800   1.347       .  D
C799        H811   1.084       .  S
C800        C801   1.487       .  S
C800        H812   1.087       .  S
C801        C802   1.403       .  A
C801        C806   1.408       .  A
C802        C803   1.396       .  A
C802        H813   1.084       .  S
C803        C804   1.408       .  A
C803        H814   1.083       .  S
C804        C805   1.406       .  A
C805        C806   1.399       .  A
C805        H815   1.083       .  S
C806        H816   1.081       .  S
C817        C818   1.406       .  A
C817        C822   1.406       .  A
C818        C819   1.399       .  A
C818        H831   1.083       .  S
C819        C820   1.402       .  A
C819        H832   1.083       .  S
C820        C821   1.404       .  A
C820        C823   1.477       .  S
C821        C822   1.392       .  A
C821        H833   1.083       .  S
C822        H834   1.083       .  S
C823        C824   1.343       .  D
C823        H835   1.086       .  S
C824        C825   1.475       .  S
C824        H836   1.087       .  S
C825        C826   1.400       .  A
C825        C830   1.406       .  A
C826        C827   1.392       .  A
C826        H837   1.084       .  S
C827        C828   1.405       .  A
C827        H838   1.083       .  S
C828        C829   1.405       .  A
C829        C830   1.399       .  A
C829        H839   1.083       .  S
C830        H840   1.082       .  S
C841        C842   1.406       .  A
C841        C846   1.408       .  A
C842        C843   1.398       .  A
C842        H855   1.083       .  S
C843        C844   1.403       .  A
C843        H856   1.083       .  S
C844        C845   1.405       .  A
C844        C847   1.482       .  S
C845        C846   1.398       .  A
C845        H857   1.083       .  S
C846        H858   1.083       .  S
C847        C848   1.345       .  D
C847        H859   1.087       .  S
C848        C849   1.481       .  S
C848        H860   1.086       .  S
C849        C850   1.402       .  A
C849        C854   1.407       .  A
C850        C851   1.397       .  A
C850        H861   1.083       .  S
C851        C852   1.405       .  A
C851        H862   1.084       .  S
C852        C853   1.404       .  A
C853        C854   1.399       .  A
C853        H863   1.083       .  S
C854        H864   1.083       .  S
C865        C866   1.405       .  A
C865        C870   1.406       .  A
C866        C867   1.400       .  A
C866        H879   1.083       .  S
C867        C868   1.406       .  A
C867        H880   1.083       .  S
C868        C869   1.408       .  A
C868        C871   1.491       .  S
C869        C870   1.397       .  A
C869        H881   1.080       .  S
C870        H882   1.083       .  S
C871        C872   1.351       .  D
C871        H883   1.084       .  S
C872        C873   1.491       .  S
C872        H884   1.084       .  S
C873        C874   1.405       .  A
C873        C878   1.408       .  A
C874        C875   1.399       .  A
C874        H885   1.083       .  S
C875        C876   1.405       .  A
C875        H886   1.083       .  S
C876        C877   1.408       .  A
C877        C878   1.399       .  A
C877        H887   1.083       .  S
C878        H888   1.080       .  S
C889        C890   1.406       .  A
C889        C894   1.405       .  A
C890        C891   1.397       .  A
C890        H903   1.083       .  S
C891        C892   1.401       .  A
C891        H904   1.083       .  S
C892        C893   1.407       .  A
C892        C895   1.482       .  S
C893        C894   1.399       .  A
C893        H905   1.083       .  S
C894        H906   1.083       .  S
C895        C896   1.345       .  D
C895        H907   1.086       .  S
C896        C897   1.482       .  S
C896        H908   1.086       .  S
C897        C898   1.403       .  A
C897        C902   1.405       .  A
C898        C899   1.398       .  A
C898        H909   1.083       .  S
C899        C900   1.406       .  A
C899        H910   1.083       .  S
C900        C901   1.410       .  A
C901        C902   1.399       .  A
C901        H911   1.083       .  S
C902        H912   1.083       .  S
C913        C914   1.406       .  A
C913        C918   1.405       .  A
C914        C915   1.396       .  A
C914        H927   1.083       .  S
C915        C916   1.403       .  A
C915        H928   1.083       .  S
C916        C917   1.408       .  A
C916        C919   1.485       .  S
C917        C918   1.397       .  A
C917        H929   1.081       .  S
C918        H930   1.083       .  S
C919        C920   1.346       .  D
C919        H931   1.086       .  S
C920        C921   1.482       .  S
C920        H932   1.084       .  S
C921        C922   1.401       .  A
C921        C926   1.406       .  A
C922        C923   1.398       .  A
C922        H933   1.083       .  S
C923        C924   1.408       .  A
C923        H934   1.083       .  S
C924        C925   1.407       .  A
C925        C926   1.397       .  A
C925        H935   1.083       .  S
C926        H936   1.082       .  S
C937        C938   1.406       .  A
C937        C942   1.406       .  A
C938        C939   1.399       .  A
C938        H951   1.083       .  S
C939        C940   1.402       .  A
C939        H952   1.083       .  S
C940        C941   1.406       .  A
C940        C943   1.483       .  S
C941        C942   1.394       .  A
C941        H953   1.082       .  S
C942        H954   1.083       .  S
C943        C944   1.346       .  D
C943        H955   1.085       .  S
C944        C945   1.485       .  S
C944        H956   1.086       .  S
C945        C946   1.403       .  A
C945        C950   1.408       .  A
C946        C947   1.396       .  A
C946        H957   1.084       .  S
C947        C948   1.406       .  A
C947        H958   1.083       .  S
C948        C949   1.406       .  A
C949        C950   1.398       .  A
C949        H959   1.083       .  S
C950        H960   1.081       .  S
C961        C962   1.407       .  A
C961        C966   1.406       .  A
C962        C963   1.402       .  A
C962        H975   1.083       .  S
C963        C964   1.405       .  A
C963        H976   1.083       .  S
C964        C965   1.406       .  A
C964        C967   1.488       .  S
C965        C966   1.396       .  A
C965        H977   1.082       .  S
C966        H978   1.083       .  S
C967        C968   1.347       .  D
C967        H979   1.086       .  S
C968        C969   1.483       .  S
C968        H980   1.086       .  S
C969        C970   1.400       .  A
C969        C974   1.407       .  A
C970        C971   1.395       .  A
C970        H981   1.084       .  S
C971        C972   1.407       .  A
C971        H982   1.083       .  S
C972        C973   1.408       .  A
C973        C974   1.404       .  A
C973        H983   1.083       .  S
C974        H984   1.083       .  S
C985        C986   1.405       .  A
C985        C990   1.406       .  A
C986        C987   1.399       .  A
C986        H999   1.083       .  S
C987        C988   1.403       .  A
C987       H1000   1.083       .  S
C988        C989   1.406       .  A
C988        C991   1.483       .  S
C989        C990   1.398       .  A
C989       H1001   1.082       .  S
C990       H1002   1.083       .  S
C991        C992   1.346       .  D
C991       H1003   1.086       .  S
C992        C993   1.482       .  S
C992       H1004   1.086       .  S
C993        C994   1.402       .  A
C993        C998   1.405       .  A
C994        C995   1.397       .  A
C994       H1005   1.083       .  S
C995        C996   1.406       .  A
C995       H1006   1.083       .  S
C996        C997   1.407       .  A
C997        C998   1.398       .  A
C997       H1007   1.083       .  S
C998       H1008   1.083       .  S
C1009      C1010   1.404       .  A
C1009      C1014   1.408       .  A
C1010      C1011   1.398       .  A
C1010      H1023   1.083       .  S
C1011      C1012   1.405       .  A
C1011      H1024   1.083       .  S
C1012      C1013   1.408       .  A
C1012      C1015   1.490       .  S
C1013      C1014   1.399       .  A
C1013      H1025   1.080       .  S
C1014      H1026   1.083       .  S
C1015      C1016   1.349       .  D
C1015      H1027   1.086       .  S
C1016      C1017   1.487       .  S
C1016      H1028   1.084       .  S
C1017      C1018   1.403       .  A
C1017      C1022   1.406       .  A
C1018      C1019   1.400       .  A
C1018      H1029   1.083       .  S
C1019      C1020   1.407       .  A
C1019      H1030   1.083       .  S
C1020      C1021   1.407       .  A
C1021      C1022   1.397       .  A
C1021      H1031   1.083       .  S
C1022      H1032   1.082       .  S
C1033      C1034   1.406       .  A
C1033      C1038   1.405       .  A
C1034      C1035   1.395       .  A
C1034      H1047   1.083       .  S
C1035      C1036   1.402       .  A
C1035      H1048   1.084       .  S
C1036      C1037   1.409       .  A
C1036      C1039   1.488       .  S
C1037      C1038   1.400       .  A
C1037      H1049   1.081       .  S
C1038      H1050   1.083       .  S
C1039      C1040   1.348       .  D
C1039      H1051   1.083       .  S
C1040      C1041   1.489       .  S
C1040      H1052   1.084       .  S
C1041      C1042   1.404       .  A
C1041      C1046   1.409       .  A
C1042      C1043   1.397       .  A
C1042      H1053   1.083       .  S
C1043      C1044   1.405       .  A
C1043      H1054   1.083       .  S
C1044      C1045   1.405       .  A
C1045      C1046   1.398       .  A
C1045      H1055   1.083       .  S
C1046      H1056   1.080       .  S
C1057      C1058   1.406       .  A
C1057      C1062   1.407       .  A
C1058      C1059   1.396       .  A
C1058      H1071   1.083       .  S
C1059      C1060   1.402       .  A
C1059      H1072   1.084       .  S
C1060      C1061   1.409       .  A
C1060      C1063   1.487       .  S
C1061      C1062   1.402       .  A
C1061      H1073   1.081       .  S
C1062      H1074   1.083       .  S
C1063      C1064   1.346       .  D
C1063      H1075   1.086       .  S
C1064      C1065   1.486       .  S
C1064      H1076   1.085       .  S
C1065      C1066   1.402       .  A
C1065      C1070   1.408       .  A
C1066      C1067   1.396       .  A
C1066      H1077   1.083       .  S
C1067      C1068   1.406       .  A
C1067      H1078   1.083       .  S
C1068      C1069   1.406       .  A
C1069      C1070   1.399       .  A
C1069      H1079   1.083       .  S
C1070      H1080   1.082       .  S
C1081      C1082   1.408       .  A
C1081      C1086   1.405       .  A
C1082      C1083   1.397       .  A
C1082      H1095   1.083       .  S
C1083      C1084   1.401       .  A
C1083      H1096   1.083       .  S
C1084      C1085   1.407       .  A
C1084      C1087   1.483       .  S
C1085      C1086   1.397       .  A
C1085      H1097   1.082       .  S
C1086      H1098   1.083       .  S
C1087      C1088   1.346       .  D
C1087      H1099   1.084       .  S
C1088      C1089   1.485       .  S
C1088      H1100   1.086       .  S
C1089      C1090   1.400       .  A
C1089      C1094   1.410       .  A
C1090      C1091   1.393       .  A
C1090      H1101   1.084       .  S
C1091      C1092   1.407       .  A
C1091      H1102   1.083       .  S
C1092      C1093   1.406       .  A
C1093      C1094   1.402       .  A
C1093      H1103   1.083       .  S
C1094      H1104   1.081       .  S
C1105      C1106   1.406       .  A
C1105      C1110   1.405       .  A
C1106      C1107   1.396       .  A
C1106      H1119   1.083       .  S
C1107      C1108   1.401       .  A
C1107      H1120   1.083       .  S
C1108      C1109   1.405       .  A
C1108      C1111   1.477       .  S
C1109      C1110   1.394       .  A
C1109      H1121   1.082       .  S
C1110      H1122   1.083       .  S
C1111      C1112   1.344       .  D
C1111      H1123   1.085       .  S
C1112      C1113   1.479       .  S
C1112      H1124   1.086       .  S
C1113      C1114   1.402       .  A
C1113      C1118   1.406       .  A
C1114      C1115   1.396       .  A
C1114      H1125   1.083       .  S
C1115      C1116   1.405       .  A
C1115      H1126   1.083       .  S
C1116      C1117   1.406       .  A
C1117      C1118   1.394       .  A
C1117      H1127   1.083       .  S
C1118      H1128   1.082       .  S
C1129      C1130   1.405       .  A
C1129      C1134   1.407       .  A
C1130      C1131   1.391       .  A
C1130      H1143   1.083       .  S
C1131      C1132   1.400       .  A
C1131      H1144   1.084       .  S
C1132      C1133   1.407       .  A
C1132      C1135   1.479       .  S
C1133      C1134   1.403       .  A
C1133      H1145   1.082       .  S
C1134      H1146   1.083       .  S
C1135      C1136   1.345       .  D
C1135      H1147   1.086       .  S
C1136      C1137   1.485       .  S
C1136      H1148   1.086       .  S
C1137      C1138   1.403       .  A
C1137      C1142   1.406       .  A
C1138      C1139   1.402       .  A
C1138      H1149   1.083       .  S
C1139      C1140   1.408       .  A
C1139      H1150   1.083       .  S
C1140      C1141   1.405       .  A
C1141      C1142   1.392       .  A
C1141      H1151   1.083       .  S
C1142      H1152   1.082       .  S
C1153      C1154   1.408       .  A
C1153      C1158   1.406       .  A
C1154      C1155   1.394       .  A
C1154      H1167   1.083       .  S
C1155      C1156   1.401       .  A
C1155      H1168   1.084       .  S
C1156      C1157   1.410       .  A
C1156      C1159   1.487       .  S
C1157      C1158   1.401       .  A
C1157      H1169   1.081       .  S
C1158      H1170   1.083       .  S
C1159      C1160   1.344       .  D
C1159      H1171   1.086       .  S
C1160      C1161   1.484       .  S
C1160      H1172   1.085       .  S
C1161      C1162   1.399       .  A
C1161      C1166   1.410       .  A
C1162      C1163   1.392       .  A
C1162      H1173   1.084       .  S
C1163      C1164   1.407       .  A
C1163      H1174   1.083       .  S
C1164      C1165   1.406       .  A
C1165      C1166   1.403       .  A
C1165      H1175   1.083       .  S
C1166      H1176   1.082       .  S
C1177      C1178   1.406       .  A
C1177      C1182   1.406       .  A
C1178      C1179   1.400       .  A
C1178      H1191   1.083       .  S
C1179      C1180   1.409       .  A
C1179      H1192   1.081       .  S
C1180      C1181   1.402       .  A
C1180      C1183   1.487       .  S
C1181      C1182   1.396       .  A
C1181      H1193   1.084       .  S
C1182      H1194   1.083       .  S
C1183      C1184   1.348       .  D
C1183      H1195   1.083       .  S
C1184      C1185   1.491       .  S
C1184      H1196   1.085       .  S
C1185      C1186   1.404       .  A
C1185      C1190   1.410       .  A
C1186      C1187   1.397       .  A
C1186      H1197   1.083       .  S
C1187      C1188   1.406       .  A
C1187      H1198   1.083       .  S
C1188      C1189   1.405       .  A
C1189      C1190   1.399       .  A
C1189      H1199   1.083       .  S
C1190      H1200   1.080       .  S
C1201      C1202   1.406       .  A
C1201      C1206   1.406       .  A
C1202      C1203   1.401       .  A
C1202      H1215   1.083       .  S
C1203      C1204   1.405       .  A
C1203      H1216   1.083       .  S
C1204      C1205   1.406       .  A
C1204      C1207   1.488       .  S
C1205      C1206   1.396       .  A
C1205      H1217   1.082       .  S
C1206      H1218   1.083       .  S
C1207      C1208   1.348       .  D
C1207      H1219   1.086       .  S
C1208      C1209   1.487       .  S
C1208      H1220   1.086       .  S
C1209      C1210   1.403       .  A
C1209      C1214   1.407       .  A
C1210      C1211   1.398       .  A
C1210      H1221   1.084       .  S
C1211      C1212   1.408       .  A
C1211      H1222   1.083       .  S
C1212      C1213   1.408       .  A
C1213      C1214   1.401       .  A
C1213      H1223   1.083       .  S
C1214      H1224   1.082       .  S
C1225      C1226   1.406       .  A
C1225      C1230   1.406       .  A
C1226      C1227   1.397       .  A
C1226      H1239   1.083       .  S
C1227      C1228   1.404       .  A
C1227      H1240   1.083       .  S
C1228      C1229   1.408       .  A
C1228      C1231   1.486       .  S
C1229      C1230   1.397       .  A
C1229      H1241   1.081       .  S
C1230      H1242   1.083       .  S
C1231      C1232   1.347       .  D
C1231      H1243   1.086       .  S
C1232      C1233   1.484       .  S
C1232      H1244   1.085       .  S
C1233      C1234   1.402       .  A
C1233      C1238   1.408       .  A
C1234      C1235   1.397       .  A
C1234      H1245   1.083       .  S
C1235      C1236   1.408       .  A
C1235      H1246   1.083       .  S
C1236      C1237   1.405       .  A
C1237      C1238   1.397       .  A
C1237      H1247   1.083       .  S
C1238      H1248   1.082       .  S
C1249      C1250   1.407       .  A
C1249      C1254   1.406       .  A
C1250      C1251   1.396       .  A
C1250      H1263   1.083       .  S
C1251      C1252   1.402       .  A
C1251      H1264   1.084       .  S
C1252      C1253   1.408       .  A
C1252      C1255   1.486       .  S
C1253      C1254   1.401       .  A
C1253      H1265   1.081       .  S
C1254      H1266   1.083       .  S
C1255      C1256   1.348       .  D
C1255      H1267   1.083       .  S
C1256      C1257   1.491       .  S
C1256      H1268   1.085       .  S
C1257      C1258   1.405       .  A
C1257      C1262   1.409       .  A
C1258      C1259   1.399       .  A
C1258      H1269   1.083       .  S
C1259      C1260   1.405       .  A
C1259      H1270   1.083       .  S
C1260      C1261   1.406       .  A
C1261      C1262   1.397       .  A
C1261      H1271   1.083       .  S
C1262      H1272   1.080       .  S
C1273      C1274   1.405       .  A
C1273      C1278   1.407       .  A
C1274      C1275   1.397       .  A
C1274      H1287   1.083       .  S
C1275      C1276   1.403       .  A
C1275      H1288   1.083       .  S
C1276      C1277   1.406       .  A
C1276      C1279   1.484       .  S
C1277      C1278   1.398       .  A
C1277      H1289   1.082       .  S
C1278      H1290   1.083       .  S
C1279      C1280   1.349       .  D
C1279      H1291   1.086       .  S
C1280      C1281   1.486       .  S
C1280      H1292   1.085       .  S
C1281      C1282   1.405       .  A
C1281      C1286   1.406       .  A
C1282      C1283   1.401       .  A
C1282      H1293   1.083       .  S
C1283      C1284   1.407       .  A
C1283      H1294   1.083       .  S
C1284      C1285   1.406       .  A
C1285      C1286   1.394       .  A
C1285      H1295   1.083       .  S
C1286      H1296   1.082       .  S
C1297      C1298   1.407       .  A
C1297      C1302   1.405       .  A
C1298      C1299   1.396       .  A
C1298      H1311   1.083       .  S
C1299      C1300   1.402       .  A
C1299      H1312   1.084       .  S
C1300      C1301   1.410       .  A
C1300      C1303   1.488       .  S
C1301      C1302   1.400       .  A
C1301      H1313   1.081       .  S
C1302      H1314   1.083       .  S
C1303      C1304   1.346       .  D
C1303      H1315   1.085       .  S
C1304      C1305   1.485       .  S
C1304      H1316   1.084       .  S
C1305      C1306   1.400       .  A
C1305      C1310   1.409       .  A
C1306      C1307   1.394       .  A
C1306      H1317   1.084       .  S
C1307      C1308   1.408       .  A
C1307      H1318   1.083       .  S
C1308      C1309   1.406       .  A
C1309      C1310   1.401       .  A
C1309      H1319   1.083       .  S
C1310      H1320   1.082       .  S
C1321      C1322   1.407       .  A
C1321      C1326   1.405       .  A
C1322      C1323   1.396       .  A
C1322      H1335   1.083       .  S
C1323      C1324   1.403       .  A
C1323      H1336   1.083       .  S
C1324      C1325   1.411       .  A
C1324      C1327   1.492       .  S
C1325      C1326   1.401       .  A
C1325      H1337   1.080       .  S
C1326      H1338   1.083       .  S
C1327      C1328   1.348       .  D
C1327      H1339   1.084       .  S
C1328      C1329   1.491       .  S
C1328      H1340   1.083       .  S
C1329      C1330   1.403       .  A
C1329      C1334   1.410       .  A
C1330      C1331   1.396       .  A
C1330      H1341   1.084       .  S
C1331      C1332   1.406       .  A
C1331      H1342   1.083       .  S
C1332      C1333   1.406       .  A
C1333      C1334   1.402       .  A
C1333      H1343   1.083       .  S
C1334      H1344   1.081       .  S
C1345      C1346   1.405       .  A
C1345      C1350   1.407       .  A
C1346      C1347   1.401       .  A
C1346      H1359   1.083       .  S
C1347      C1348   1.406       .  A
C1347      H1360   1.083       .  S
C1348      C1349   1.407       .  A
C1348      C1351   1.489       .  S
C1349      C1350   1.396       .  A
C1349      H1361   1.081       .  S
C1350      H1362   1.083       .  S
C1351      C1352   1.350       .  D
C1351      H1363   1.084       .  S
C1352      C1353   1.488       .  S
C1352      H1364   1.085       .  S
C1353      C1354   1.404       .  A
C1353      C1358   1.408       .  A
C1354      C1355   1.397       .  A
C1354      H1365   1.083       .  S
C1355      C1356   1.405       .  A
C1355      H1366   1.083       .  S
C1356      C1357   1.406       .  A
C1357      C1358   1.398       .  A
C1357      H1367   1.083       .  S
C1358      H1368   1.081       .  S
C1369      C1370   1.407       .  A
C1369      C1374   1.406       .  A
C1370      C1371   1.395       .  A
C1370      H1383   1.083       .  S
C1371      C1372   1.402       .  A
C1371      H1384   1.084       .  S
C1372      C1373   1.410       .  A
C1372      C1375   1.489       .  S
C1373      C1374   1.401       .  A
C1373      H1385   1.080       .  S
C1374      H1386   1.083       .  S
C1375      C1376   1.346       .  D
C1375      H1387   1.086       .  S
C1376      C1377   1.486       .  S
C1376      H1388   1.084       .  S
C1377      C1378   1.401       .  A
C1377      C1382   1.409       .  A
C1378      C1379   1.396       .  A
C1378      H1389   1.084       .  S
C1379      C1380   1.408       .  A
C1379      H1390   1.083       .  S
C1380      C1381   1.406       .  A
C1381      C1382   1.401       .  A
C1381      H1391   1.083       .  S
C1382      H1392   1.082       .  S
C1393      C1394   1.405       .  A
C1393      C1398   1.407       .  A
C1394      C1395   1.393   1_455  A
C1394      H1407   1.083       .  S
C1395      C1396   1.401       .  A
C1395      H1408   1.084       .  S
C1396      C1397   1.407   1_655  A
C1396      C1399   1.481       .  S
C1397      C1398   1.402       .  A
C1397      H1409   1.082       .  S
C1398      H1410   1.083       .  S
C1399      C1400   1.345       .  D
C1399      H1411   1.087       .  S
C1400      C1401   1.482       .  S
C1400      H1412   1.086       .  S
C1401      C1402   1.403       .  A
C1401      C1406   1.405       .  A
C1402      C1403   1.400       .  A
C1402      H1413   1.083       .  S
C1403      C1404   1.407       .  A
C1403      H1414   1.083       .  S
C1404      C1405   1.406       .  A
C1405      C1406   1.394       .  A
C1405      H1415   1.083       .  S
C1406      H1416   1.083       .  S
C1417      C1418   1.406       .  A
C1417      C1422   1.409       .  A
C1418      C1419   1.394       .  A
C1418      H1431   1.083       .  S
C1419      C1420   1.401       .  A
C1419      H1432   1.084       .  S
C1420      C1421   1.407       .  A
C1420      C1423   1.482       .  S
C1421      C1422   1.402       .  A
C1421      H1433   1.082       .  S
C1422      H1434   1.083       .  S
C1423      C1424   1.346       .  D
C1423      H1435   1.086       .  S
C1424      C1425   1.485       .  S
C1424      H1436   1.086       .  S
C1425      C1426   1.401       .  A
C1425      C1430   1.407       .  A
C1426      C1427   1.399       .  A
C1426      H1437   1.083       .  S
C1427      C1428   1.409       .  A
C1427      H1438   1.083       .  S
C1428      C1429   1.404       .  A
C1429      C1430   1.396       .  A
C1429      H1439   1.083       .  S
C1430      H1440   1.082       .  S
C1441      C1442   1.407       .  A
C1441      C1446   1.407       .  A
C1442      C1443   1.396       .  A
C1442      H1455   1.083       .  S
C1443      C1444   1.402       .  A
C1443      H1456   1.083       .  S
C1444      C1445   1.409       .  A
C1444      C1447   1.489       .  S
C1445      C1446   1.402       .  A
C1445      H1457   1.082       .  S
C1446      H1458   1.083       .  S
C1447      C1448   1.346       .  D
C1447      H1459   1.086       .  S
C1448      C1449   1.488       .  S
C1448      H1460   1.085       .  S
C1449      C1450   1.401       .  A
C1449      C1454   1.410   1_655  A
C1450      C1451   1.396   1_655  A
C1450      H1461   1.083       .  S
C1451      C1452   1.407       .  A
C1451      H1462   1.083       .  S
C1452      C1453   1.407       .  A
C1453      C1454   1.404       .  A
C1453      H1463   1.083       .  S
C1454      H1464   1.082       .  S
C1465      C1466   1.405       .  A
C1465      C1470   1.406       .  A
C1466      C1467   1.402       .  A
C1466      H1479   1.083       .  S
C1467      C1468   1.405       .  A
C1467      H1480   1.083       .  S
C1468      C1469   1.404       .  A
C1468      C1471   1.483       .  S
C1469      C1470   1.391       .  A
C1469      H1481   1.082       .  S
C1470      H1482   1.083       .  S
C1471      C1472   1.348       .  D
C1471      H1483   1.085       .  S
C1472      C1473   1.482       .  S
C1472      H1484   1.086       .  S
C1473      C1474   1.403       .  A
C1473      C1478   1.405       .  A
C1474      C1475   1.397       .  A
C1474      H1485   1.083       .  S
C1475      C1476   1.404       .  A
C1475      H1486   1.083       .  S
C1476      C1477   1.409       .  A
C1477      C1478   1.397       .  A
C1477      H1487   1.083       .  S
C1478      H1488   1.082       .  S
C1489      C1490   1.407       .  A
C1489      C1494   1.406       .  A
C1490      C1491   1.397       .  A
C1490      H1503   1.083       .  S
C1491      C1492   1.402       .  A
C1491      H1504   1.083       .  S
C1492      C1493   1.409       .  A
C1492      C1495   1.488       .  S
C1493      C1494   1.397       .  A
C1493      H1505   1.081       .  S
C1494      H1506   1.083       .  S
C1495      C1496   1.347       .  D
C1495      H1507   1.084       .  S
C1496      C1497   1.487       .  S
C1496      H1508   1.084       .  S
C1497      C1498   1.402       .  A
C1497      C1502   1.409       .  A
C1498      C1499   1.395       .  A
C1498      H1509   1.084       .  S
C1499      C1500   1.405       .  A
C1499      H1510   1.083       .  S
C1500      C1501   1.407       .  A
C1501      C1502   1.401       .  A
C1501      H1511   1.083       .  S
C1502      H1512   1.081       .  S
C1513      C1514   1.406       .  A
C1513      C1518   1.406       .  A
C1514      C1515   1.396       .  A
C1514      H1527   1.083       .  S
C1515      C1516   1.402       .  A
C1515      H1528   1.084       .  S
C1516      C1517   1.407       .  A
C1516      C1519   1.482       .  S
C1517      C1518   1.398       .  A
C1517      H1529   1.082       .  S
C1518      H1530   1.083       .  S
C1519      C1520   1.344       .  D
C1519      H1531   1.087       .  S
C1520      C1521   1.478       .  S
C1520      H1532   1.085       .  S
C1521      C1522   1.406       .  A
C1521      C1526   1.400       .  A
C1522      C1523   1.396       .  A
C1522      H1533   1.083       .  S
C1523      C1524   1.406       .  A
C1523      H1534   1.083       .  S
C1524      C1525   1.406       .  A
C1525      C1526   1.395       .  A
C1525      H1535   1.083       .  S
C1526      H1536   1.083       .  S
C1537      C1538   1.407       .  A
C1537      C1542   1.404       .  A
C1538      C1539   1.397       .  A
C1538      H1551   1.083       .  S
C1539      C1540   1.402       .  A
C1539      H1552   1.083       .  S
C1540      C1541   1.409       .  A
C1540      C1543   1.486       .  S
C1541      C1542   1.397       .  A
C1541      H1553   1.081       .  S
C1542      H1554   1.083       .  S
C1543      C1544   1.345       .  D
C1543      H1555   1.084       .  S
C1544      C1545   1.485       .  S
C1544      H1556   1.085       .  S
C1545      C1546   1.400       .  A
C1545      C1550   1.410       .  A
C1546      C1547   1.392       .  A
C1546      H1557   1.084       .  S
C1547      C1548   1.408       .  A
C1547      H1558   1.083       .  S
C1548      C1549   1.406       .  A
C1549      C1550   1.403       .  A
C1549      H1559   1.083       .  S
C1550      H1560   1.081       .  S
C1561      C1562   1.406       .  A
C1561      C1566   1.405       .  A
C1562      C1563   1.398       .  A
C1562      H1575   1.083       .  S
C1563      C1564   1.404       .  A
C1563      H1576   1.083       .  S
C1564      C1565   1.406       .  A
C1564      C1567   1.483       .  S
C1565      C1566   1.394       .  A
C1565      H1577   1.081       .  S
C1566      H1578   1.083       .  S
C1567      C1568   1.348       .  D
C1567      H1579   1.083       .  S
C1568      C1569   1.486       .  S
C1568      H1580   1.085       .  S
C1569      C1570   1.405       .  A
C1569      C1574   1.407       .  A
C1570      C1571   1.398       .  A
C1570      H1581   1.083       .  S
C1571      C1572   1.404       .  A
C1571      H1582   1.083       .  S
C1572      C1573   1.405       .  A
C1573      C1574   1.394       .  A
C1573      H1583   1.083       .  S
C1574      H1584   1.080       .  S
C1585      C1586   1.406       .  A
C1585      C1590   1.406       .  A
C1586      C1587   1.401       .  A
C1586      H1599   1.083       .  S
C1587      C1588   1.404       .  A
C1587      H1600   1.083       .  S
C1588      C1589   1.407       .  A
C1588      C1591   1.487       .  S
C1589      C1590   1.399       .  A
C1589      H1601   1.082       .  S
C1590      H1602   1.083       .  S
C1591      C1592   1.346       .  D
C1591      H1603   1.086       .  S
C1592      C1593   1.485       .  S
C1592      H1604   1.086       .  S
C1593      C1594   1.401       .  A
C1593      C1598   1.408       .  A
C1594      C1595   1.396       .  A
C1594      H1605   1.083       .  S
C1595      C1596   1.406       .  A
C1595      H1606   1.083       .  S
C1596      C1597   1.405       .  A
C1597      C1598   1.402       .  A
C1597      H1607   1.083       .  S
C1598      H1608   1.082       .  S
C1609      C1610   1.406       .  A
C1609      C1614   1.409       .  A
C1610      C1611   1.401       .  A
C1610      H1623   1.083       .  S
C1611      C1612   1.406       .  A
C1611      H1624   1.083       .  S
C1612      C1613   1.406       .  A
C1612      C1615   1.490       .  S
C1613      C1614   1.398       .  A
C1613      H1625   1.081       .  S
C1614      H1626   1.083       .  S
C1615      C1616   1.350       .  D
C1615      H1627   1.085       .  S
C1616      C1617   1.490       .  S
C1616      H1628   1.085       .  S
C1617      C1618   1.405       .  A
C1617      C1622   1.406       .  A
C1618      C1619   1.402       .  A
C1618      H1629   1.083       .  S
C1619      C1620   1.407       .  A
C1619      H1630   1.083       .  S
C1620      C1621   1.407       .  A
C1621      C1622   1.398       .  A
C1621      H1631   1.083       .  S
C1622      H1632   1.082       .  S
C1633      C1634   1.408       .  A
C1633      C1638   1.407       .  A
C1634      C1635   1.395       .  A
C1634      H1647   1.083       .  S
C1635      C1636   1.401       .  A
C1635      H1648   1.084       .  S
C1636      C1637   1.407       .  A
C1636      C1639   1.483       .  S
C1637      C1638   1.401       .  A
C1637      H1649   1.082       .  S
C1638      H1650   1.083       .  S
C1639      C1640   1.347       .  D
C1639      H1651   1.086       .  S
C1640      C1641   1.486       .  S
C1640      H1652   1.086       .  S
C1641      C1642   1.403       .  A
C1641      C1646   1.407       .  A
C1642      C1643   1.399       .  A
C1642      H1653   1.083       .  S
C1643      C1644   1.407       .  A
C1643      H1654   1.083       .  S
C1644      C1645   1.406       .  A
C1645      C1646   1.397       .  A
C1645      H1655   1.083       .  S
C1646      H1656   1.082       .  S
C1657      C1658   1.405       .  A
C1657      C1662   1.409       .  A
C1658      C1659   1.399       .  A
C1658      H1671   1.083       .  S
C1659      C1660   1.404       .  A
C1659      H1672   1.083       .  S
C1660      C1661   1.405       .  A
C1660      C1663   1.484       .  S
C1661      C1662   1.398       .  A
C1661      H1673   1.082       .  S
C1662      H1674   1.083       .  S
C1663      C1664   1.348       .  D
C1663      H1675   1.087       .  S
C1664      C1665   1.485       .  S
C1664      H1676   1.086       .  S
C1665      C1666   1.405       .  A
C1665      C1670   1.404       .  A
C1666      C1667   1.403       .  A
C1666      H1677   1.083       .  S
C1667      C1668   1.407       .  A
C1667      H1678   1.083       .  S
C1668      C1669   1.407       .  A
C1669      C1670   1.393       .  A
C1669      H1679   1.083       .  S
C1670      H1680   1.083       .  S
C1681      C1682   1.405       .  A
C1681      C1686   1.407       .  A
C1682      C1683   1.394       .  A
C1682      H1695   1.083       .  S
C1683      C1684   1.402       .  A
C1683      H1696   1.084       .  S
C1684      C1685   1.408       .  A
C1684      C1687   1.482       .  S
C1685      C1686   1.400       .  A
C1685      H1697   1.081       .  S
C1686      H1698   1.083       .  S
C1687      C1688   1.347   1_556  D
C1687      H1699   1.084       .  S
C1688      C1689   1.487       .  S
C1688      H1700   1.085   1_554  S
C1689      C1690   1.403       .  A
C1689      C1694   1.408       .  A
C1690      C1691   1.398       .  A
C1690      H1701   1.083       .  S
C1691      C1692   1.406       .  A
C1691      H1702   1.083       .  S
C1692      C1693   1.404       .  A
C1693      C1694   1.395       .  A
C1693      H1703   1.083       .  S
C1694      H1704   1.080       .  S
C1705      C1706   1.405       .  A
C1705      C1710   1.406       .  A
C1706      C1707   1.395   1_455  A
C1706      H1719   1.083       .  S
C1707      C1708   1.400       .  A
C1707      H1720   1.083       .  S
C1708      C1709   1.406   1_655  A
C1708      C1711   1.478       .  S
C1709      C1710   1.400       .  A
C1709      H1721   1.083   1_455  S
C1710      H1722   1.083       .  S
C1711      C1712   1.344       .  D
C1711      H1723   1.086       .  S
C1712      C1713   1.483       .  S
C1712      H1724   1.087       .  S
C1713      C1714   1.402       .  A
C1713      C1718   1.406       .  A
C1714      C1715   1.398       .  A
C1714      H1725   1.083       .  S
C1715      C1716   1.407       .  A
C1715      H1726   1.083       .  S
C1716      C1717   1.407       .  A
C1717      C1718   1.396       .  A
C1717      H1727   1.083       .  S
C1718      H1728   1.082       .  S
C1729      C1730   1.407       .  A
C1729      C1734   1.405       .  A
C1730      C1731   1.396       .  A
C1730      H1743   1.083       .  S
C1731      C1732   1.402       .  A
C1731      H1744   1.084       .  S
C1732      C1733   1.407       .  A
C1732      C1735   1.482       .  S
C1733      C1734   1.400       .  A
C1733      H1745   1.082       .  S
C1734      H1746   1.083       .  S
C1735      C1736   1.346       .  D
C1735      H1747   1.087       .  S
C1736      C1737   1.480       .  S
C1736      H1748   1.085       .  S
C1737      C1738   1.402       .  A
C1737      C1742   1.404       .  A
C1738      C1739   1.401       .  A
C1738      H1749   1.083       .  S
C1739      C1740   1.406       .  A
C1739      H1750   1.083       .  S
C1740      C1741   1.406       .  A
C1741      C1742   1.394       .  A
C1741      H1751   1.083       .  S
C1742      H1752   1.083       .  S
C1753      C1754   1.407       .  A
C1753      C1758   1.406       .  A
C1754      C1755   1.397       .  A
C1754      H1767   1.083       .  S
C1755      C1756   1.403       .  A
C1755      H1768   1.084       .  S
C1756      C1757   1.410       .  A
C1756      C1759   1.490       .  S
C1757      C1758   1.401       .  A
C1757      H1769   1.081       .  S
C1758      H1770   1.083       .  S
C1759      C1760   1.348   1_554  D
C1759      H1771   1.083       .  S
C1760      C1761   1.492       .  S
C1760      H1772   1.084       .  S
C1761      C1762   1.404       .  A
C1761      C1766   1.410       .  A
C1762      C1763   1.397       .  A
C1762      H1773   1.083       .  S
C1763      C1764   1.404       .  A
C1763      H1774   1.083       .  S
C1764      C1765   1.406       .  A
C1765      C1766   1.399       .  A
C1765      H1775   1.083       .  S
C1766      H1776   1.079       .  S
C1777      C1778   1.408       .  A
C1777      C1782   1.409       .  A
C1778      C1779   1.404       .  A
C1778      H1791   1.083       .  S
C1779      C1780   1.405       .  A
C1779      H1792   1.083       .  S
C1780      C1781   1.407       .  A
C1780      C1783   1.493       .  S
C1781      C1782   1.399       .  A
C1781      H1793   1.082       .  S
C1782      H1794   1.083       .  S
C1783      C1784   1.350       .  D
C1783      H1795   1.085       .  S
C1784      C1785   1.493   1_655  S
C1784      H1796   1.086       .  S
C1785      C1786   1.404       .  A
C1785      C1790   1.410       .  A
C1786      C1787   1.398       .  A
C1786      H1797   1.083       .  S
C1787      C1788   1.406       .  A
C1787      H1798   1.083       .  S
C1788      C1789   1.408       .  A
C1789      C1790   1.404       .  A
C1789      H1799   1.083       .  S
C1790      H1800   1.081   1_455  S
C1801      C1802   1.407       .  A
C1801      C1806   1.407       .  A
C1802      C1803   1.399       .  A
C1802      H1815   1.083       .  S
C1803      C1804   1.402       .  A
C1803      H1816   1.083       .  S
C1804      C1805   1.405       .  A
C1804      C1807   1.482       .  S
C1805      C1806   1.397       .  A
C1805      H1817   1.083       .  S
C1806      H1818   1.083       .  S
C1807      C1808   1.344       .  D
C1807      H1819   1.087       .  S
C1808      C1809   1.478       .  S
C1808      H1820   1.087       .  S
C1809      C1810   1.401       .  A
C1809      C1814   1.406       .  A
C1810      C1811   1.393       .  A
C1810      H1821   1.083       .  S
C1811      C1812   1.404       .  A
C1811      H1822   1.083       .  S
C1812      C1813   1.406       .  A
C1813      C1814   1.401       .  A
C1813      H1823   1.083       .  S
C1814      H1824   1.083       .  S
C1825      C1826   1.406   1_565  A
C1825      C1830   1.408       .  A
C1826      C1827   1.397       .  A
C1826      H1839   1.083       .  S
C1827      C1828   1.404   1_545  A
C1827      H1840   1.084       .  S
C1828      C1829   1.410       .  A
C1828      C1831   1.492       .  S
C1829      C1830   1.403       .  A
C1829      H1841   1.081       .  S
C1830      H1842   1.083       .  S
C1831      C1832   1.350       .  D
C1831      H1843   1.082   1_565  S
C1832      C1833   1.495       .  S
C1832      H1844   1.084       .  S
C1833      C1834   1.405       .  A
C1833      C1838   1.410       .  A
C1834      C1835   1.400   1_455  A
C1834      H1845   1.083       .  S
C1835      C1836   1.406       .  A
C1835      H1846   1.083       .  S
C1836      C1837   1.405       .  A
C1837      C1838   1.398   1_655  A
C1837      H1847   1.083   1_565  S
C1838      H1848   1.079   1_565  S
C1849      C1850   1.407       .  A
C1849      C1854   1.405       .  A
C1850      C1851   1.396       .  A
C1850      H1863   1.083       .  S
C1851      C1852   1.403       .  A
C1851      H1864   1.084       .  S
C1852      C1853   1.411       .  A
C1852      C1855   1.492       .  S
C1853      C1854   1.401       .  A
C1853      H1865   1.080       .  S
C1854      H1866   1.083       .  S
C1855      C1856   1.347       .  D
C1855      H1867   1.085       .  S
C1856      C1857   1.488       .  S
C1856      H1868   1.083       .  S
C1857      C1858   1.401       .  A
C1857      C1862   1.410       .  A
C1858      C1859   1.395       .  A
C1858      H1869   1.084       .  S
C1859      C1860   1.408       .  A
C1859      H1870   1.083       .  S
C1860      C1861   1.404       .  A
C1861      C1862   1.402       .  A
C1861      H1871   1.083       .  S
C1862      H1872   1.081       .  S
C1873      C1874   1.407       .  A
C1873      C1878   1.406       .  A
C1874      C1875   1.401       .  A
C1874      H1887   1.083       .  S
C1875      C1876   1.404       .  A
C1875      H1888   1.083       .  S
C1876      C1877   1.406       .  A
C1876      C1879   1.486       .  S
C1877      C1878   1.394       .  A
C1877      H1889   1.082       .  S
C1878      H1890   1.083       .  S
C1879      C1880   1.350       .  D
C1879      H1891   1.083       .  S
C1880      C1881   1.489       .  S
C1880      H1892   1.085       .  S
C1881      C1882   1.407       .  A
C1881      C1886   1.407       .  A
C1882      C1883   1.398       .  A
C1882      H1893   1.083       .  S
C1883      C1884   1.403       .  A
C1883      H1894   1.083       .  S
C1884      C1885   1.408       .  A
C1885      C1886   1.397       .  A
C1885      H1895   1.083       .  S
C1886      H1896   1.079       .  S
C1897      C1898   1.407       .  A
C1897      C1902   1.407       .  A
C1898      C1899   1.396   1_655  A
C1898      H1911   1.083       .  S
C1899      C1900   1.402       .  A
C1899      H1912   1.084       .  S
C1900      C1901   1.409       .  A
C1900      C1903   1.487       .  S
C1901      C1902   1.401   1_455  A
C1901      H1913   1.082   1_565  S
C1902      H1914   1.083   1_565  S
C1903      C1904   1.348       .  D
C1903      H1915   1.082       .  S
C1904      C1905   1.492       .  S
C1904      H1916   1.085   1_565  S
C1905      C1906   1.404   1_565  A
C1905      C1910   1.411       .  A
C1906      C1907   1.397       .  A
C1906      H1917   1.083       .  S
C1907      C1908   1.406   1_545  A
C1907      H1918   1.083       .  S
C1908      C1909   1.405       .  A
C1909      C1910   1.400       .  A
C1909      H1919   1.083       .  S
C1910      H1920   1.079       .  S
C1921      C1922   1.406       .  A
C1921      C1926   1.410       .  A
C1922      C1923   1.404       .  A
C1922      H1935   1.083       .  S
C1923      C1924   1.406       .  A
C1923      H1936   1.083       .  S
C1924      C1925   1.405       .  A
C1924      C1927   1.491       .  S
C1925      C1926   1.398       .  A
C1925      H1937   1.082       .  S
C1926      H1938   1.083       .  S
C1927      C1928   1.350       .  D
C1927      H1939   1.086       .  S
C1928      C1929   1.489       .  S
C1928      H1940   1.086       .  S
C1929      C1930   1.404       .  A
C1929      C1934   1.407       .  A
C1930      C1931   1.400       .  A
C1930      H1941   1.083       .  S
C1931      C1932   1.406       .  A
C1931      H1942   1.083       .  S
C1932      C1933   1.408       .  A
C1933      C1934   1.402       .  A
C1933      H1943   1.083       .  S
C1934      H1944   1.082       .  S
C1945      C1946   1.406       .  A
C1945      C1950   1.407       .  A
C1946      C1947   1.400       .  A
C1946      H1959   1.083       .  S
C1947      C1948   1.404       .  A
C1947      H1960   1.083       .  S
C1948      C1949   1.411       .  A
C1948      C1951   1.498       .  S
C1949      C1950   1.407       .  A
C1949      H1961   1.082       .  S
C1950      H1962   1.083       .  S
C1951      C1952   1.351       .  D
C1951      H1963   1.085       .  S
C1952      C1953   1.499       .  S
C1952      H1964   1.085       .  S
C1953      C1954   1.405       .  A
C1953      C1958   1.410       .  A
C1954      C1955   1.401       .  A
C1954      H1965   1.083       .  S
C1955      C1956   1.407       .  A
C1955      H1966   1.083       .  S
C1956      C1957   1.408       .  A
C1957      C1958   1.405       .  A
C1957      H1967   1.083       .  S
C1958      H1968   1.081       .  S
C1969      C1970   1.406   1_554  A
C1969      C1974   1.409       .  A
C1970      C1971   1.393       .  A
C1970      H1983   1.083       .  S
C1971      C1972   1.401   1_556  A
C1971      H1984   1.084       .  S
C1972      C1973   1.408       .  A
C1972      C1975   1.484       .  S
C1973      C1974   1.404       .  A
C1973      H1985   1.082       .  S
C1974      H1986   1.083       .  S
C1975      C1976   1.346       .  D
C1975      H1987   1.085   1_554  S
C1976      C1977   1.488   1_565  S
C1976      H1988   1.085       .  S
C1977      C1978   1.403       .  A
C1977      C1982   1.409   1_554  A
C1978      C1979   1.400       .  A
C1978      H1989   1.083       .  S
C1979      C1980   1.408       .  A
C1979      H1990   1.083       .  S
C1980      C1981   1.404   1_554  A
C1981      C1982   1.396       .  A
C1981      H1991   1.083       .  S
C1982      H1992   1.081       .  S
C1993      C1994   1.405       .  A
C1993      C1998   1.404       .  A
C1994      C1995   1.393       .  A
C1994      H2007   1.083       .  S
C1995      C1996   1.402       .  A
C1995      H2008   1.084       .  S
C1996      C1997   1.408       .  A
C1996      C1999   1.482       .  S
C1997      C1998   1.399       .  A
C1997      H2009   1.081       .  S
C1998      H2010   1.083       .  S
C1999      C2000   1.346       .  D
C1999      H2011   1.086       .  S
C2000      C2001   1.483       .  S
C2000      H2012   1.085       .  S
C2001      C2002   1.403       .  A
C2001      C2006   1.405       .  A
C2002      C2003   1.400       .  A
C2002      H2013   1.083       .  S
C2003      C2004   1.406       .  A
C2003      H2014   1.083       .  S
C2004      C2005   1.406       .  A
C2005      C2006   1.392       .  A
C2005      H2015   1.083       .  S
C2006      H2016   1.082       .  S
C2017      C2018   1.406       .  A
C2017      C2022   1.404       .  A
C2018      C2019   1.395       .  A
C2018      H2031   1.083       .  S
C2019      C2020   1.400       .  A
C2019      H2032   1.083       .  S
C2020      C2021   1.407       .  A
C2020      C2023   1.479       .  S
C2021      C2022   1.397       .  A
C2021      H2033   1.082       .  S
C2022      H2034   1.083       .  S
C2023      C2024   1.344       .  D
C2023      H2035   1.083       .  S
C2024      C2025   1.485       .  S
C2024      H2036   1.087       .  S
C2025      C2026   1.401       .  A
C2025      C2030   1.410       .  A
C2026      C2027   1.391       .  A
C2026      H2037   1.084       .  S
C2027      C2028   1.405       .  A
C2027      H2038   1.083       .  S
C2028      C2029   1.405       .  A
C2029      C2030   1.400       .  A
C2029      H2039   1.083       .  S
C2030      H2040   1.080       .  S
C2041      C2042   1.407       .  A
C2041      C2046   1.407   1_556  A
C2042      C2043   1.397       .  A
C2042      H2055   1.083       .  S
C2043      C2044   1.402       .  A
C2043      H2056   1.084       .  S
C2044      C2045   1.408   1_556  A
C2044      C2047   1.488   1_545  S
C2045      C2046   1.401       .  A
C2045      H2057   1.081       .  S
C2046      H2058   1.083       .  S
C2047      C2048   1.347   1_556  D
C2047      H2059   1.085       .  S
C2048      C2049   1.488       .  S
C2048      H2060   1.085       .  S
C2049      C2050   1.402       .  A
C2049      C2054   1.409   1_554  A
C2050      C2051   1.397       .  A
C2050      H2061   1.083       .  S
C2051      C2052   1.407       .  A
C2051      H2062   1.083       .  S
C2052      C2053   1.406   1_554  A
C2053      C2054   1.400       .  A
C2053      H2063   1.083       .  S
C2054      H2064   1.081       .  S
C2065      C2066   1.406       .  A
C2065      C2070   1.407       .  A
C2066      C2067   1.398       .  A
C2066      H2079   1.083       .  S
C2067      C2068   1.403       .  A
C2067      H2080   1.083       .  S
C2068      C2069   1.406       .  A
C2068      C2071   1.484       .  S
C2069      C2070   1.398       .  A
C2069      H2081   1.082       .  S
C2070      H2082   1.083       .  S
C2071      C2072   1.347       .  D
C2071      H2083   1.086       .  S
C2072      C2073   1.484       .  S
C2072      H2084   1.085       .  S
C2073      C2074   1.403       .  A
C2073      C2078   1.406       .  A
C2074      C2075   1.399       .  A
C2074      H2085   1.083       .  S
C2075      C2076   1.406       .  A
C2075      H2086   1.083       .  S
C2076      C2077   1.407       .  A
C2077      C2078   1.396       .  A
C2077      H2087   1.083       .  S
C2078      H2088   1.082       .  S
C2089      C2090   1.406       .  A
C2089      C2094   1.406       .  A
C2090      C2091   1.396       .  A
C2090      H2103   1.083       .  S
C2091      C2092   1.401       .  A
C2091      H2104   1.083       .  S
C2092      C2093   1.406       .  A
C2092      C2095   1.479       .  S
C2093      C2094   1.401       .  A
C2093      H2105   1.083       .  S
C2094      H2106   1.083       .  S
C2095      C2096   1.345       .  D
C2095      H2107   1.087       .  S
C2096      C2097   1.482       .  S
C2096      H2108   1.087       .  S
C2097      C2098   1.403       .  A
C2097      C2102   1.404       .  A
C2098      C2099   1.401       .  A
C2098      H2109   1.083       .  S
C2099      C2100   1.407       .  A
C2099      H2110   1.083       .  S
C2100      C2101   1.407       .  A
C2101      C2102   1.396       .  A
C2101      H2111   1.083       .  S
C2102      H2112   1.083       .  S
