geometry optimzed in LAMMPS
_audit_creation_date              2020-11-30 
_audit_creation_method            'lammps2cif' 
_symmetry_space_group_name_H-M    'P1' 
_symmetry_Int_Tables_number       1 
_symmetry_cell_setting            triclinic 
loop_ 
_symmetry_equiv_pos_as_xyz 
  x,y,z 
_cell_length_a                    43.69559821 
_cell_length_b                    43.69559827674083 
_cell_length_c                    69.90142215138363 
_cell_angle_alpha                 90.1271439042903 
_cell_angle_beta                  89.96269439234445 
_cell_angle_gamma                 90.01921314493691 
loop_ 
_atom_site_label 
_atom_site_type_symbol 
_atom_site_fract_x 
_atom_site_fract_y 
_atom_site_fract_z 
_atom_site_charge 
O1          O  0.49406256  0.00370711  0.71438851    -0.71000
O2          O  0.50348713  0.50463064  0.65914992    -0.71200
O3          O  0.49644006  0.46074455  0.68571406    -0.71100
O4          O  0.49944055  0.04744871  0.68729056    -0.71100
O5          O  0.04684195  0.04723538  0.69238647    -0.71000
O6          O  0.04603822  0.45930869  0.68816328    -0.71100
O7          O  0.05231272  0.00603655  0.66362523    -0.71000
O8          O  0.04123801  0.49915954  0.71723924    -0.71200
V9          V  0.49874034  0.50421060  0.68630522     1.35200
V10         V  0.04605336  0.50271529  0.69018211     1.35200
C11         C  0.01468585  0.49970377  0.72452479     0.78200
C12         C  0.02935987  0.00469560  0.65260989     0.78300
C13         C  0.52078512  0.44513977  0.68657969     0.78200
C14         C  0.52402935  0.06203917  0.69018087     0.78100
O15         O  0.03977673  0.25796637  0.71739994    -0.71000
O16         O  0.05054355  0.25063996  0.66347211    -0.71200
O17         O  0.04473118  0.29748806  0.68824669    -0.71100
O18         O  0.04543623  0.21058541  0.69263223    -0.71100
O19         O  0.49800565  0.20935207  0.68750729    -0.71000
O20         O  0.49590037  0.29636174  0.68614716    -0.71100
O21         O  0.50228745  0.25182212  0.65984161    -0.71000
O22         O  0.49166316  0.25425870  0.71402498    -0.71200
V23         V  0.04417029  0.25407001  0.69037956     1.35200
V24         V  0.49790739  0.25290690  0.68697565     1.35200
C25         C  0.51443640  0.25779236  0.72502073     0.78200
C26         C  0.52877071  0.25083545  0.65251823     0.78300
C27         C  0.52033260  0.31186603  0.68678611     0.78200
C28         C  0.52281504  0.19523181  0.69046275     0.78100
O29         O  0.25020349  0.49766715  0.71260607    -0.71000
O30         O  0.24310940  0.99758359  0.65917687    -0.71200
O31         O  0.24738213  0.04145252  0.68621092    -0.71100
O32         O  0.24686982  0.45479631  0.68530656    -0.71100
O33         O  0.19726234  0.45407196  0.68749853    -0.71000
O34         O  0.19808095  0.04169597  0.68997835    -0.71100
O35         O  0.19285020  0.49825386  0.66093834    -0.71000
O36         O  0.20202675  0.99668000  0.71643590    -0.71200
V37         V  0.24613434  0.99778198  0.68630385     1.35200
V38         V  0.19861390  0.99819131  0.68911554     1.35200
C39         C  0.22829467  0.99630523  0.72418010     0.78200
C40         C  0.21711312  0.99813371  0.65126310     0.78300
C41         C  0.22279217  0.05649371  0.68819321     0.78200
C42         C  0.22223895  0.43965052  0.68640240     0.78100
O43         O  0.25189176  0.24940901  0.71462752    -0.71000
O44         O  0.24412689  0.24842778  0.66039623    -0.71200
O45         O  0.24752603  0.29236528  0.68745876    -0.71100
O46         O  0.24807331  0.20516589  0.68754626    -0.71100
O47         O  0.19878389  0.20505350  0.69141059    -0.71000
O48         O  0.19785597  0.29194381  0.68900206    -0.71100
O49         O  0.19462339  0.24657948  0.66294337    -0.71000
O50         O  0.20250110  0.25100681  0.71755634    -0.71200
V51         V  0.24691873  0.24879142  0.68756626     1.35200
V52         V  0.19937948  0.24856206  0.69020399     1.35200
C53         C  0.22869774  0.25138772  0.72540415     0.78200
C54         C  0.21821566  0.24722086  0.65237574     0.78300
C55         C  0.22252464  0.30694681  0.68805869     0.78200
C56         C  0.22344301  0.19019896  0.68945461     0.78100
O57         O  0.99712525  0.45399607  0.81452037    -0.71000
O58         O  0.49270448  0.44464105  0.86893882    -0.71200
O59         O  0.45126719  0.44968994  0.84032864    -0.71100
O60         O  0.03821503  0.44849759  0.84306510    -0.71100
O61         O  0.04267941  0.00451986  0.84575402    -0.71000
O62         O  0.45526898  0.00480776  0.84583014    -0.71100
O63         O  0.99905796  0.00143927  0.87289509    -0.71000
O64         O  0.49942655  0.00859974  0.81873683    -0.71200
V65         V  0.49478389  0.45005994  0.84178143     1.35200
V66         V  0.49887656  0.00352966  0.84581912     1.35200
C67         C  0.49761665  0.48012733  0.80689194     0.78200
C68         C  0.49355749  0.46793766  0.87976248     0.78300
C69         C  0.43656744  0.47441954  0.84235288     0.78200
C70         C  0.05335467  0.47308056  0.84427522     0.78100
O71         O  0.00182789  0.24966025  0.81861098    -0.71000
O72         O  0.50317387  0.25802175  0.87309288    -0.71200
O73         O  0.45912361  0.25160822  0.84680316    -0.71100
O74         O  0.04587504  0.25643129  0.84497029    -0.71100
O75         O  0.04296113  0.30572168  0.84220435    -0.71000
O76         O  0.45630453  0.30078401  0.84367581    -0.71100
O77         O  0.00018749  0.30724031  0.87029763    -0.71000
O78         O  0.49941405  0.29925340  0.81592397    -0.71200
V79         V  0.50246818  0.25502260  0.84590017     1.35200
V80         V  0.49971053  0.30240950  0.84321265     1.35200
C81         C  0.50124879  0.27320178  0.80798430     0.78200
C82         C  0.50151112  0.28397832  0.88108127     0.78300
C83         C  0.44275899  0.27542161  0.84580278     0.78200
C84         C  0.05929566  0.28188961  0.84296915     0.78100
O85         O  0.24195573  0.45209850  0.81392408    -0.71000
O86         O  0.24742207  0.44400908  0.86829486    -0.71200
O87         O  0.20142153  0.44740819  0.84281533    -0.71100
O88         O  0.28849957  0.44854694  0.83946270    -0.71100
O89         O  0.29179770  0.00397445  0.84466323    -0.71000
O90         O  0.20476040  0.00277143  0.84470958    -0.71100
O91         O  0.24848247  0.99988661  0.87175761    -0.71000
O92         O  0.24774785  0.00685494  0.81744046    -0.71200
V93         V  0.24490646  0.44893981  0.84116131     1.35200
V94         V  0.24825876  0.00239978  0.84458017     1.35200
C95         C  0.24212863  0.47826716  0.80612371     0.78200
C96         C  0.24631451  0.46745543  0.87896127     0.78300
C97         C  0.18643281  0.47213454  0.84364292     0.78200
C98         C  0.30322255  0.47325894  0.84170440     0.78100
O99         O  0.24942622  0.24737578  0.81892121    -0.71000
O100        O  0.24843270  0.25848409  0.87296538    -0.71200
O101        O  0.20576233  0.25582475  0.84523787    -0.71100
O102        O  0.29260610  0.25067159  0.84687277    -0.71100
O103        O  0.29541203  0.29956859  0.84220028    -0.71000
O104        O  0.20886434  0.30505217  0.84201049    -0.71100
O105        O  0.25245356  0.30767837  0.86944710    -0.71000
O106        O  0.25102452  0.29658187  0.81496021    -0.71200
V107        V  0.24918355  0.25405555  0.84590606     1.35200
V108        V  0.25202224  0.30128196  0.84223039     1.35200
C109        C  0.24884792  0.27003210  0.80768170     0.78200
C110        C  0.25040624  0.28475211  0.88048260     0.78300
C111        C  0.19246834  0.28132969  0.84308649     0.78200
C112        C  0.30893800  0.27444513  0.84518881     0.78100
O113        O  0.05023848  0.99921760  0.31538840    -0.71000
O114        O  0.05924795  0.49835534  0.36891366    -0.71200
O115        O  0.05473066  0.45525207  0.34126170    -0.71100
O116        O  0.05456236  0.04260779  0.34307242    -0.71100
O117        O  0.50531253  0.04091152  0.34521189    -0.71000
O118        O  0.50654721  0.45390683  0.34706641    -0.71100
O119        O  0.51286492  0.99952205  0.37334864    -0.71000
O120        O  0.49879197  0.49500552  0.31896476    -0.71200
V121        V  0.05515356  0.99907082  0.34265414     1.35200
V122        V  0.50806735  0.99731731  0.34638823     1.35200
C123        C  0.52343056  0.99586245  0.30813890     0.78200
C124        C  0.53931604  0.99929453  0.38066265     0.78300
C125        C  0.53148861  0.43981819  0.34436473     0.78200
C126        C  0.52960678  0.05663452  0.34405678     0.78100
O127        O  0.50152313  0.25091994  0.31950494    -0.71000
O128        O  0.51149907  0.24772239  0.37360942    -0.71200
O129        O  0.50741222  0.29247069  0.34754584    -0.71100
O130        O  0.50557010  0.20542419  0.34560201    -0.71100
O131        O  0.05485518  0.20450311  0.34303360    -0.71000
O132        O  0.05623923  0.29165716  0.34290849    -0.71100
O133        O  0.06050483  0.24819603  0.37015717    -0.71000
O134        O  0.05051917  0.24875462  0.31575322    -0.71200
V135        V  0.50748070  0.24899693  0.34649301     1.35200
V136        V  0.05459003  0.24816583  0.34301788     1.35200
C137        C  0.52437518  0.25146078  0.30835817     0.78200
C138        C  0.53781558  0.24818160  0.38115996     0.78300
C139        C  0.53225406  0.30687885  0.34533140     0.78200
C140        C  0.53006215  0.19010585  0.34431980     0.78100
O141        O  0.25297500  0.99533050  0.31771755    -0.71000
O142        O  0.24486875  0.49776167  0.37072568    -0.71200
O143        O  0.25157885  0.45343631  0.34459354    -0.71100
O144        O  0.24779426  0.03964757  0.34458640    -0.71100
O145        O  0.19853123  0.03882933  0.34042878    -0.71000
O146        O  0.20208943  0.45061503  0.34249781    -0.71100
O147        O  0.19463137  0.99704013  0.36885448    -0.71000
O148        O  0.20444340  0.49127224  0.31353483    -0.71200
V149        V  0.24754397  0.99609223  0.34475241     1.35200
V150        V  0.20006254  0.99519358  0.34175829     1.35200
C151        C  0.22992141  0.99332069  0.30683111     0.78200
C152        C  0.21797486  0.99687489  0.37956804     0.78300
C153        C  0.22764602  0.43721789  0.34418026     0.78200
C154        C  0.22296394  0.05409516  0.34242716     0.78100
O155        O  0.25918106  0.24580956  0.31866012    -0.71000
O156        O  0.24886936  0.24386561  0.37275330    -0.71200
O157        O  0.25185071  0.20105728  0.34512105    -0.71100
O158        O  0.25603847  0.28821821  0.34660061    -0.71100
O159        O  0.20652740  0.29039310  0.34461764    -0.71000
O160        O  0.20294362  0.20361072  0.33985164    -0.71100
O161        O  0.19946839  0.24388697  0.36927141    -0.71000
O162        O  0.21031249  0.25089467  0.31518690    -0.71200
V163        V  0.25303950  0.24469659  0.34568789     1.35200
V164        V  0.20574766  0.24704902  0.34226294     1.35200
C165        C  0.23664426  0.24985891  0.30756690     0.78200
C166        C  0.22251096  0.24368044  0.38024496     0.78300
C167        C  0.22666320  0.18746330  0.34226440     0.78200
C168        C  0.23186472  0.30416889  0.34620856     0.78100
O169        O  0.52328170  0.00074065  0.46629096    -0.71000
O170        O  0.51743171  0.49723040  0.41191659    -0.71200
O171        O  0.52196761  0.45557559  0.44032481    -0.71100
O172        O  0.52006164  0.04265330  0.43827731    -0.71100
O173        O  0.06977418  0.04305703  0.43823217    -0.71000
O174        O  0.06957929  0.45593107  0.43612521    -0.71100
O175        O  0.06753669  0.00038025  0.41020138    -0.71000
O176        O  0.07250299  0.49882678  0.46398194    -0.71200
V177        V  0.52211894  0.99914538  0.43911148     1.35200
V178        V  0.06907616  0.99951933  0.43762157     1.35200
C179        C  0.54870174  0.00067758  0.47492800     0.78200
C180        C  0.54251083  0.99933002  0.40173798     0.78300
C181        C  0.54693275  0.44118767  0.43841138     0.78200
C182        C  0.54458810  0.05804288  0.43815720     0.78100
O183        O  0.52310185  0.24867950  0.46689467    -0.71000
O184        O  0.51743633  0.25105206  0.41265767    -0.71200
O185        O  0.51932380  0.20645217  0.43892394    -0.71100
O186        O  0.52165724  0.29365598  0.44067584    -0.71100
O187        O  0.06974941  0.29253090  0.43693631    -0.71000
O188        O  0.06906397  0.20556574  0.43840285    -0.71100
O189        O  0.06636668  0.24775049  0.41031286    -0.71000
O190        O  0.07200319  0.25028671  0.46500562    -0.71200
V191        V  0.52135842  0.24999997  0.43973997     1.35200
V192        V  0.06836559  0.24904802  0.43770062     1.35200
C193        C  0.54871221  0.24921177  0.47529799     0.78200
C194        C  0.54099894  0.24897475  0.40222897     0.78300
C195        C  0.54388786  0.19112232  0.43867258     0.78200
C196        C  0.54675557  0.30789626  0.43892517     0.78100
O197        O  0.18457702  0.99688435  0.46344148    -0.71000
O198        O  0.18961045  0.49604447  0.40747586    -0.71200
O199        O  0.18576635  0.45202408  0.43440941    -0.71100
O200        O  0.18895562  0.04002855  0.43607776    -0.71100
O201        O  0.23836336  0.03783141  0.43897845    -0.71000
O202        O  0.23542002  0.45140534  0.43572168    -0.71100
O203        O  0.23910737  0.99610817  0.41077906    -0.71000
O204        O  0.23281762  0.49314629  0.46405582    -0.71200
V205        V  0.18732858  0.49555169  0.43478925     1.35200
V206        V  0.23494251  0.49491865  0.43688390     1.35200
C207        C  0.20709525  0.49376500  0.47237081     0.78200
C208        C  0.21558481  0.49677991  0.39942600     0.78300
C209        C  0.21042032  0.43686427  0.43479924     0.78200
C210        C  0.21432946  0.05379111  0.43753980     0.78100
O211        O  0.23735877  0.24815474  0.46582855    -0.71000
O212        O  0.24296743  0.24410341  0.41164066    -0.71200
O213        O  0.23880824  0.28967075  0.43733657    -0.71100
O214        O  0.24104572  0.20252439  0.43982821    -0.71100
O215        O  0.19163037  0.20130495  0.43672387    -0.71000
O216        O  0.18914901  0.28807836  0.43661858    -0.71100
O217        O  0.19338353  0.24445962  0.40940130    -0.71000
O218        O  0.18786907  0.24463598  0.46412053    -0.71200
V219        V  0.23906588  0.24608228  0.43865736     1.35200
V220        V  0.19144680  0.24467296  0.43678398     1.35200
C221        C  0.21181550  0.24669019  0.47429398     0.78200
C222        C  0.21930940  0.24391138  0.40126099     0.78300
C223        C  0.21349611  0.30371520  0.43657703     0.78200
C224        C  0.21666571  0.18705311  0.43819108     0.78100
O225        O  0.49921800  0.98805539  0.06647610    -0.71000
O226        O  0.99629074  0.99635476  0.12112538    -0.71200
O227        O  0.04121794  0.99510013  0.09479968    -0.71100
O228        O  0.45396253  0.98931861  0.09257444    -0.71100
O229        O  0.45237551  0.43802549  0.09558778    -0.71000
O230        O  0.03938784  0.43899718  0.09460683    -0.71100
O231        O  0.49638341  0.44216001  0.12243145    -0.71000
O232        O  0.99531406  0.43521519  0.06779023    -0.71200
V233        V  0.49751348  0.99017476  0.09364707     1.35200
V234        V  0.49588069  0.43944994  0.09512549     1.35200
C235        C  0.49976782  0.96228575  0.05817424     0.78200
C236        C  0.49753640  0.97068507  0.13116694     0.78300
C237        C  0.05679484  0.97070312  0.09514665     0.78200
C238        C  0.43998700  0.96404097  0.09396469     0.78100
O239        O  0.50224038  0.31833379  0.06905995    -0.71000
O240        O  0.00151266  0.31353224  0.12376487    -0.71200
O241        O  0.04534220  0.31732433  0.09656396    -0.71100
O242        O  0.45836543  0.31503158  0.09610199    -0.71100
O243        O  0.45959899  0.26532784  0.09573471    -0.71000
O244        O  0.04663452  0.26789268  0.09356349    -0.71100
O245        O  0.50456515  0.26427719  0.12183235    -0.71000
O246        O  0.00128127  0.26874642  0.06742150    -0.71200
V247        V  0.50184635  0.31524011  0.09640520     1.35200
V248        V  0.50309890  0.26758694  0.09476573     1.35200
C249        C  0.50139487  0.29413071  0.05902121     0.78200
C250        C  0.50293797  0.28804197  0.13212350     0.78300
C251        C  0.06088519  0.29306828  0.09488371     0.78200
C252        C  0.44416276  0.28981592  0.09592255     0.78100
O253        O  0.24779363  0.98980051  0.06575097    -0.71000
O254        O  0.25140461  0.99445181  0.11996339    -0.71200
O255        O  0.29310257  0.98963102  0.09172213    -0.71100
O256        O  0.20604460  0.99432034  0.09395247    -0.71100
O257        O  0.20195438  0.43778017  0.09357884    -0.71000
O258        O  0.28906113  0.43673560  0.09384241    -0.71100
O259        O  0.24558203  0.44034669  0.12088905    -0.71000
O260        O  0.24566065  0.43429923  0.06643949    -0.71200
V261        V  0.24955666  0.99107559  0.09288346     1.35200
V262        V  0.24554741  0.43822085  0.09363854     1.35200
C263        C  0.24718289  0.96429722  0.05717787     0.78200
C264        C  0.24974863  0.97060415  0.13010383     0.78300
C265        C  0.30671672  0.96413209  0.09295762     0.78200
C266        C  0.19001834  0.97018819  0.09418210     0.78100
O267        O  0.25251818  0.31877575  0.06858367    -0.71000
O268        O  0.25474869  0.31342156  0.12324357    -0.71200
O269        O  0.29705438  0.31497471  0.09521857    -0.71100
O270        O  0.21007821  0.31744049  0.09654364    -0.71100
O271        O  0.20865613  0.26805004  0.09330708    -0.71000
O272        O  0.29573194  0.26527620  0.09460239    -0.71100
O273        O  0.25146626  0.26393234  0.12105146    -0.71000
O274        O  0.25334917  0.26916041  0.06677730    -0.71200
V275        V  0.25356446  0.31521889  0.09586723     1.35200
V276        V  0.25225557  0.26758913  0.09397396     1.35200
C277        C  0.25302085  0.29476581  0.05837614     0.78200
C278        C  0.25360903  0.28758934  0.13141598     0.78300
C279        C  0.31120695  0.28972996  0.09498027     0.78200
C280        C  0.19446559  0.29321214  0.09479757     0.78100
O281        O  0.50155519  0.45748660  0.21651697    -0.71000
O282        O  0.99541742  0.44804131  0.16217387    -0.71200
O283        O  0.04156865  0.45348613  0.18725321    -0.71100
O284        O  0.45477952  0.45161878  0.19118848    -0.71100
O285        O  0.45607048  0.00339473  0.18773851    -0.71000
O286        O  0.04348435  0.00434170  0.18717022    -0.71100
O287        O  0.49880791  0.99957318  0.16013783    -0.71000
O288        O  0.00090771  0.00838796  0.21477790    -0.71200
V289        V  0.49826274  0.45369418  0.18931353     1.35200
V290        V  0.49963516  0.00257397  0.18734621     1.35200
C291        C  0.50292318  0.98438547  0.22526593     0.78200
C292        C  0.49781127  0.97350261  0.15223660     0.78300
C293        C  0.05807128  0.97934280  0.18748393     0.78200
C294        C  0.44127508  0.97870472  0.18974265     0.78100
O295        O  0.50875811  0.24822977  0.21454838    -0.71000
O296        O  0.00278149  0.25834704  0.16053804    -0.71200
O297        O  0.04892214  0.25497995  0.18570015    -0.71100
O298        O  0.46187646  0.25188236  0.18927089    -0.71100
O299        O  0.46030881  0.30144521  0.19148551    -0.71000
O300        O  0.04735147  0.30393260  0.19108472    -0.71100
O301        O  0.50346210  0.30812320  0.16421207    -0.71000
O302        O  0.00473926  0.29694916  0.21848629    -0.71200
V303        V  0.50543899  0.25451823  0.18768132     1.35200
V304        V  0.50389591  0.30186812  0.19135443     1.35200
C305        C  0.50820221  0.27090946  0.22582027     0.78200
C306        C  0.50297109  0.28505366  0.15319437     0.78300
C307        C  0.06295358  0.28003011  0.18809080     0.78200
C308        C  0.44621269  0.27620883  0.19037751     0.78100
O309        O  0.24379889  0.45353814  0.21473233    -0.71000
O310        O  0.24806676  0.44549440  0.16050910    -0.71200
O311        O  0.28982529  0.44842516  0.18895652    -0.71100
O312        O  0.20266551  0.45070819  0.18611857    -0.71100
O313        O  0.20578736  0.00222293  0.18607054    -0.71000
O314        O  0.29271513  0.00213090  0.18675404    -0.71100
O315        O  0.24975862  0.99881294  0.15925758    -0.71000
O316        O  0.24836092  0.00546292  0.21359698    -0.71200
V317        V  0.24621074  0.45048068  0.18755773     1.35200
V318        V  0.24921441  0.00117889  0.18645499     1.35200
C319        C  0.24628287  0.98184931  0.22397297     0.78200
C320        C  0.25024506  0.97291797  0.15112445     0.78300
C321        C  0.30541240  0.47273752  0.18733490     0.78200
C322        C  0.18872113  0.47599681  0.18483050     0.78100
O323        O  0.25050774  0.24755856  0.21374923    -0.71000
O324        O  0.25523000  0.25814972  0.15988609    -0.71200
O325        O  0.29687166  0.25099064  0.18813013    -0.71100
O326        O  0.20976410  0.25515362  0.18546252    -0.71100
O327        O  0.21179611  0.30404329  0.19099496    -0.71000
O328        O  0.29876287  0.30054808  0.19028318    -0.71100
O329        O  0.25479913  0.30753817  0.16349088    -0.71000
O330        O  0.25527402  0.29661884  0.21789058    -0.71200
V331        V  0.25325044  0.25392486  0.18689739     1.35200
V332        V  0.25521344  0.30125715  0.19061754     1.35200
C333        C  0.25175201  0.27017904  0.22501787     0.78200
C334        C  0.25468625  0.28448990  0.15244941     0.78300
C335        C  0.31270277  0.27523291  0.18922523     0.78200
C336        C  0.19595593  0.28030691  0.18797500     0.78100
O337        O  0.00065660  0.99062376  0.96632575    -0.71000
O338        O  0.49746986  0.99493608  0.91228598    -0.71200
O339        O  0.45557659  0.99101643  0.94046522    -0.71100
O340        O  0.04282648  0.99366950  0.93829670    -0.71100
O341        O  0.03846204  0.43630455  0.93620683    -0.71000
O342        O  0.45142266  0.43697225  0.93644374    -0.71100
O343        O  0.99474703  0.43951260  0.90898459    -0.71000
O344        O  0.49507925  0.43392152  0.96365592    -0.71200
V345        V  0.49911845  0.99053925  0.93934229     1.35200
V346        V  0.49491342  0.43751975  0.93638276     1.35200
C347        C  0.50054114  0.96230016  0.97463300     0.78200
C348        C  0.49369471  0.46514542  0.90084462     0.78300
C349        C  0.43683180  0.46178402  0.93829485     0.78200
C350        C  0.05359525  0.46098861  0.93632318     0.78100
O351        O  0.49850137  0.26686912  0.96683864    -0.71000
O352        O  0.00129637  0.26232479  0.91225712    -0.71200
O353        O  0.04337510  0.26387439  0.94032400    -0.71100
O354        O  0.45630149  0.26546110  0.93875008    -0.71100
O355        O  0.45728693  0.31517059  0.93851206    -0.71000
O356        O  0.04421049  0.31331860  0.93766774    -0.71100
O357        O  0.50028328  0.31201749  0.91071842    -0.71000
O358        O  0.00144914  0.31650876  0.96522897    -0.64800
V359        V  0.49985804  0.26563077  0.93956565     1.35200
V360        V  0.50075372  0.31328988  0.93813043     1.35200
C361        C  0.49991825  0.29235766  0.97544466     0.78200
C362        C  0.50101204  0.28635867  0.90223694     0.78300
C363        C  0.05869593  0.28836824  0.93897395     0.78200
C364        C  0.44197051  0.29061847  0.93855932     0.78100
O365        O  0.24602657  0.43406615  0.96281358    -0.71000
O366        O  0.24549815  0.43913670  0.90826395    -0.71200
O367        O  0.28920485  0.43716012  0.93538930    -0.71100
O368        O  0.20214654  0.43590684  0.93575532    -0.71100
O369        O  0.20599983  0.99322984  0.93727495    -0.71000
O370        O  0.29317118  0.99256890  0.93905977    -0.71100
O371        O  0.25089097  0.99548264  0.91101059    -0.71000
O372        O  0.24814798  0.99052650  0.96524613    -0.71200
V373        V  0.24569910  0.43751010  0.93558938     1.35200
V374        V  0.24957600  0.99198040  0.93810389     1.35200
C375        C  0.24849148  0.96498641  0.97371954     0.78200
C376        C  0.24998376  0.97160827  0.90077941     0.78300
C377        C  0.30782370  0.96768676  0.93763017     0.78200
C378        C  0.19101838  0.96843641  0.93696722     0.78100
O379        O  0.24950727  0.31838055  0.96472943    -0.71000
O380        O  0.25090937  0.31355148  0.90996355    -0.71200
O381        O  0.20672922  0.31508780  0.93710929    -0.71100
O382        O  0.29376682  0.31692623  0.93782298    -0.71100
O383        O  0.29459808  0.26721496  0.93821822    -0.71000
O384        O  0.20766275  0.26566469  0.93985913    -0.71100
O385        O  0.24995766  0.26396555  0.91189362    -0.71000
O386        O  0.25246304  0.26884561  0.96624260    -0.71200
V387        V  0.25023564  0.31505932  0.93742163     1.35200
V388        V  0.25113393  0.26741631  0.93902277     1.35200
C389        C  0.25123999  0.29436326  0.97480523     0.78200
C390        C  0.25041784  0.28776152  0.90161672     0.78300
C391        C  0.19228328  0.29009872  0.93859345     0.78200
C392        C  0.30899893  0.29231398  0.93796969     0.78100
O393        O  0.52230827  0.49915386  0.56568546    -0.71000
O394        O  0.51055682  0.00239822  0.62085240    -0.71200
O395        O  0.51295897  0.04371646  0.59223865    -0.71100
O396        O  0.51888416  0.45732700  0.59404702    -0.71100
O397        O  0.06737489  0.45946157  0.59813646    -0.71000
O398        O  0.06176374  0.04578065  0.59537266    -0.71100
O399        O  0.06052370  0.50500314  0.62350426    -0.71000
O400        O  0.06838525  0.00048355  0.56955094    -0.71200
V401        V  0.51587327  0.00042956  0.59379663     1.35200
V402        V  0.06294028  0.00258911  0.59675953     1.35200
C403        C  0.54510774  0.00005615  0.55872338     0.78200
C404        C  0.53374746  0.00419024  0.63163323     0.78300
C405        C  0.53694858  0.05983351  0.59320077     0.78200
C406        C  0.54394794  0.44358156  0.59688590     0.78100
O407        O  0.06835905  0.25195272  0.56961504    -0.71000
O408        O  0.05828361  0.24936530  0.62397807    -0.71200
O409        O  0.06134352  0.20751215  0.59582519    -0.71100
O410        O  0.06548861  0.29382415  0.59819214    -0.71100
O411        O  0.51716929  0.29659391  0.59459259    -0.71000
O412        O  0.51296986  0.20977809  0.59233073    -0.71100
O413        O  0.50988814  0.25195179  0.62055918    -0.71000
O414        O  0.51965999  0.25413823  0.56649726    -0.71200
V415        V  0.06242119  0.25071844  0.59679576     1.35200
V416        V  0.51587506  0.25312804  0.59357804     1.35200
C417        C  0.54582711  0.25267818  0.55881804     0.78200
C418        C  0.53281548  0.25051885  0.63155100     0.78300
C419        C  0.53696254  0.19369822  0.59351493     0.78200
C420        C  0.54246193  0.31015034  0.59715360     0.78100
O421        O  0.18353885  0.49627316  0.56620023    -0.71000
O422        O  0.18921987  0.99611163  0.62170422    -0.71200
O423        O  0.18793154  0.04026081  0.59499339    -0.71100
O424        O  0.18686625  0.45222984  0.59306899    -0.71100
O425        O  0.23657461  0.45335027  0.59310020    -0.71000
O426        O  0.23738135  0.03949221  0.59189267    -0.71100
O427        O  0.23788480  0.49904640  0.61897012    -0.71000
O428        O  0.23477942  0.99415160  0.56568548    -0.71200
V429        V  0.18815731  0.99673525  0.59433013     1.35200
V430        V  0.23582921  0.99595279  0.59291257     1.35200
C431        C  0.20937237  0.99564477  0.55705799     0.78200
C432        C  0.21481747  0.99732753  0.63016818     0.78300
C433        C  0.21289031  0.05474239  0.59351076     0.78200
C434        C  0.21205976  0.43795627  0.59319432     0.78100
O435        O  0.18756405  0.24488626  0.56783448    -0.71000
O436        O  0.19067648  0.24776674  0.62257914    -0.71200
O437        O  0.18892739  0.28994983  0.59424780    -0.71100
O438        O  0.18914915  0.20288406  0.59602848    -0.71100
O439        O  0.23864786  0.20296511  0.59319824    -0.71000
O440        O  0.23864359  0.29010535  0.59481969    -0.71100
O441        O  0.24028380  0.24549724  0.62123425    -0.71000
O442        O  0.23714232  0.24776337  0.56679003    -0.71200
V443        V  0.19001346  0.24639195  0.59516290     1.35200
V444        V  0.23770732  0.24654450  0.59404464     1.35200
C445        C  0.21188297  0.24638542  0.55797885     0.78200
C446        C  0.21614741  0.24673816  0.63122171     0.78300
C447        C  0.21375276  0.30486410  0.59443024     0.78200
C448        C  0.21389922  0.18805879  0.59456115     0.78100
C449        C  0.21284378  0.40390450  0.59340947    -0.04600
C450        C  0.19849209  0.38697459  0.57867878    -0.01700
C451        C  0.19894729  0.35463884  0.57897259     0.03300
C452        C  0.21365827  0.33891915  0.59403837    -0.04600
C453        C  0.22848496  0.35584285  0.60859234    -0.01700
C454        C  0.22815473  0.38819356  0.60824843     0.03300
C455        C  0.18442298  0.40282382  0.56272496     0.38000
C456        C  0.24341467  0.33997020  0.62422838     0.38000
C457        C  0.24299531  0.40532876  0.62344020     0.36400
C458        C  0.18540541  0.33753867  0.56329369     0.36400
N459        N  0.25479638  0.41902709  0.63555753    -0.38400
N460        N  0.17468904  0.32391183  0.55075810    -0.38400
N461        N  0.25525244  0.32729252  0.63671933    -0.37900
N462        N  0.17329926  0.41543147  0.54995445    -0.37900
C463        C  0.21384388  0.15394078  0.59437011    -0.04600
C464        C  0.22984474  0.13770936  0.57997181    -0.01700
C465        C  0.22973436  0.10535232  0.57975733     0.03300
C466        C  0.21337757  0.08885885  0.59383386    -0.04600
C467        C  0.19739274  0.10510117  0.60824375    -0.01700
C468        C  0.19762410  0.13744330  0.60850799     0.03300
C469        C  0.24535718  0.15429738  0.56483450     0.38000
C470        C  0.18166126  0.08855065  0.62331468     0.38000
C471        C  0.18199185  0.15370325  0.62377979     0.36400
C472        C  0.24562252  0.08906518  0.56460494     0.36400
N473        N  0.16956853  0.16665276  0.63598001    -0.38400
N474        N  0.25828486  0.07604510  0.55253068    -0.38400
N475        N  0.16919739  0.07535592  0.63536304    -0.37900
N476        N  0.25759122  0.16756018  0.55272397    -0.37900
C477        C  0.54410815  0.34427914  0.59887633    -0.04600
C478        C  0.51864175  0.36108606  0.60576809    -0.01700
C479        C  0.51910165  0.39337460  0.60581359     0.03300
C480        C  0.54493870  0.40948775  0.59884003    -0.04600
C481        C  0.07097226  0.39256402  0.59402392    -0.01700
C482        C  0.07047255  0.36026813  0.59390026     0.03300
C483        C  0.49230509  0.34535033  0.61376943     0.38000
C484        C  0.09910685  0.40821559  0.58890904     0.38000
C485        C  0.09815310  0.34393345  0.58862307     0.36400
C486        C  0.49336413  0.40985088  0.61402739     0.36400
N487        N  0.12042562  0.33102942  0.58472025    -0.38400
N488        N  0.47290992  0.42290130  0.62069380    -0.38400
N489        N  0.12172927  0.42058650  0.58513926    -0.37900
N490        N  0.47133561  0.33291886  0.62024524    -0.37900
C491        C  0.53597081  0.09406213  0.59176348    -0.04600
C492        C  0.50865909  0.11057569  0.59557866    -0.01700
C493        C  0.50868720  0.14292005  0.59566270     0.03300
C494        C  0.53605421  0.15944677  0.59206023    -0.04600
C495        C  0.06259327  0.14275644  0.58734791    -0.01700
C496        C  0.06254542  0.11048512  0.58704325     0.03300
C497        C  0.48026852  0.09465403  0.59979337     0.38000
C498        C  0.09081522  0.15859128  0.58248272     0.38000
C499        C  0.09047358  0.09474076  0.58138995     0.36400
C500        C  0.48026798  0.15883091  0.59986299     0.36400
N501        N  0.11279365  0.08242293  0.57688140    -0.38400
N502        N  0.45749488  0.17128258  0.60317687    -0.38400
N503        N  0.11345705  0.17094924  0.57867952    -0.37900
N504        N  0.45751441  0.08217927  0.60315242    -0.37900
C505        C  0.40794277  0.29136319  0.93831269    -0.04600
C506        C  0.39170395  0.30881029  0.95203141    -0.01700
C507        C  0.35937232  0.30954015  0.95176370     0.03300
C508        C  0.34301557  0.29268554  0.93783387    -0.04600
C509        C  0.35926483  0.27553350  0.92399189    -0.01700
C510        C  0.39156638  0.27481296  0.92425568     0.03300
C511        C  0.40822363  0.32490556  0.96698826     0.38000
C512        C  0.34276225  0.25950439  0.90898848     0.38000
C513        C  0.40795219  0.25777302  0.90964037     0.36400
C514        C  0.34293398  0.32672268  0.96629267     0.36400
N515        N  0.42098693  0.24420166  0.89796479    -0.38400
N516        N  0.32980249  0.34037017  0.97789185    -0.38400
N517        N  0.32959095  0.24684280  0.89698617    -0.37900
N518        N  0.42145009  0.33754270  0.97897398    -0.37900
C519        C  0.09288424  0.28813110  0.93869386    -0.04600
C520        C  0.10964299  0.26838732  0.95081939    -0.01700
C521        C  0.14200913  0.26909990  0.95086287     0.03300
C522        C  0.15807686  0.28944993  0.93870795    -0.04600
C523        C  0.14126023  0.30917446  0.92660293    -0.01700
C524        C  0.10897729  0.30833649  0.92648485     0.03300
C525        C  0.09369502  0.24805409  0.96384825     0.38000
C526        C  0.15707458  0.33022337  0.91397591     0.38000
C527        C  0.09235793  0.32782562  0.91330035     0.36400
C528        C  0.15865266  0.24986117  0.96418418     0.36400
N529        N  0.07888012  0.34335995  0.90290945    -0.38400
N530        N  0.17191450  0.23460568  0.97485584    -0.38400
N531        N  0.16976085  0.34723303  0.90409535    -0.37900
N532        N  0.08102748  0.23180230  0.97423950    -0.37900
C533        C  0.40683660  0.96608557  0.93852239    -0.04600
C534        C  0.39035951  0.97896852  0.95397040    -0.01700
C535        C  0.35801830  0.97964639  0.95363754     0.03300
C536        C  0.34186860  0.96727784  0.93790237    -0.04600
C537        C  0.35439108  0.44826759  0.92263928    -0.01700
C538        C  0.38669701  0.44819686  0.92288144     0.03300
C539        C  0.40668851  0.99036598  0.97059818     0.38000
C540        C  0.33825107  0.43474366  0.90656370     0.38000
C541        C  0.40340901  0.43470195  0.90701358     0.36400
C542        C  0.34131292  0.99209943  0.96982728     0.36400
N543        N  0.41673850  0.42400045  0.89434765    -0.38400
N544        N  0.32795037  0.00194620  0.98274867    -0.38400
N545        N  0.32538150  0.42402238  0.89372530    -0.37900
N546        N  0.41978527  0.99924972  0.98388502    -0.37900
C547        C  0.09184068  0.96885285  0.93750305    -0.04600
C548        C  0.10809078  0.98651479  0.92393759    -0.01700
C549        C  0.14044975  0.98617966  0.92364854     0.03300
C550        C  0.15690972  0.96852206  0.93708871    -0.04600
C551        C  0.13648948  0.44149015  0.94860307    -0.01700
C552        C  0.10413948  0.44153051  0.94867792     0.03300
C553        C  0.09152473  0.00429281  0.90981991     0.38000
C554        C  0.15293141  0.42318527  0.96251797     0.38000
C555        C  0.08776857  0.42280264  0.96242816     0.36400
C556        C  0.15678192  0.00305247  0.90897898     0.36400
N557        N  0.07465330  0.40789842  0.97337517    -0.38400
N558        N  0.16981929  0.01636530  0.89722198    -0.38400
N559        N  0.16605232  0.40870822  0.97366910    -0.37900
N560        N  0.07832659  0.01848021  0.89855777    -0.37900
C561        C  0.41205216  0.27533965  0.18992289    -0.04600
C562        C  0.39583726  0.29268914  0.17619368    -0.01700
C563        C  0.36347794  0.29221425  0.17579925     0.03300
C564        C  0.34688434  0.27433390  0.18909880    -0.04600
C565        C  0.36310612  0.25642585  0.20253537    -0.01700
C566        C  0.39550588  0.25714435  0.20305179     0.03300
C567        C  0.41246770  0.31035522  0.16201890     0.38000
C568        C  0.34646007  0.23795431  0.21626193     0.38000
C569        C  0.41179784  0.24024296  0.21769358     0.36400
C570        C  0.34727218  0.30929345  0.16117610     0.36400
N571        N  0.42486340  0.22695465  0.22943391    -0.38400
N572        N  0.33437701  0.32276314  0.14944046    -0.38400
N573        N  0.33318022  0.22319117  0.22720707    -0.37900
N574        N  0.42569306  0.32434369  0.15065558    -0.37900
C575        C  0.16193326  0.28182206  0.18745564    -0.04600
C576        C  0.14563079  0.26809538  0.17221370    -0.01700
C577        C  0.11330371  0.26794072  0.17225125     0.03300
C578        C  0.09696628  0.28131083  0.18760008    -0.04600
C579        C  0.11325132  0.29591777  0.20252514    -0.01700
C580        C  0.14556462  0.29656656  0.20231170     0.03300
C581        C  0.16210954  0.25535505  0.15601206     0.38000
C582        C  0.09681583  0.30914457  0.21859309     0.38000
C583        C  0.16189765  0.31167302  0.21775125     0.36400
C584        C  0.09686924  0.25502303  0.15609787     0.36400
N585        N  0.17488894  0.32378048  0.23004935    -0.38400
N586        N  0.08379557  0.24487121  0.14316158    -0.38400
N587        N  0.08367727  0.31956081  0.23143166    -0.37900
N588        N  0.17526051  0.24538392  0.14304117    -0.37900
C589        C  0.34177998  0.97761847  0.18875792    -0.04600
C590        C  0.35840583  0.99570820  0.17556459    -0.01700
C591        C  0.39076969  0.99600511  0.17587649     0.03300
C592        C  0.40702794  0.97851894  0.18954937    -0.04600
C593        C  0.38828989  0.45662075  0.20200754    -0.01700
C594        C  0.35591312  0.45550547  0.20139790     0.03300
C595        C  0.34230225  0.01324482  0.16110649     0.38000
C596        C  0.40444761  0.44018695  0.21690324     0.38000
C597        C  0.33937753  0.43778707  0.21557224     0.36400
C598        C  0.40727905  0.01345647  0.16154184     0.36400
N599        N  0.32619398  0.42359739  0.22685551    -0.38400
N600        N  0.42040346  0.02732811  0.15007658    -0.38400
N601        N  0.41721053  0.42704990  0.22883101    -0.37900
N602        N  0.32950318  0.02725047  0.14957894    -0.37900
C603        C  0.15694027  0.97777854  0.18656919    -0.04600
C604        C  0.13784497  0.45914967  0.17141067    -0.01700
C605        C  0.10549326  0.45992372  0.17158491     0.03300
C606        C  0.09207092  0.97895743  0.18699161    -0.04600
C607        C  0.10894950  0.99572530  0.20069855    -0.01700
C608        C  0.14119870  0.99505310  0.20053611     0.03300
C609        C  0.15373437  0.44056664  0.15732464     0.38000
C610        C  0.09328783  0.01287320  0.21551243     0.38000
C611        C  0.15818678  0.01128993  0.21525616     0.36400
C612        C  0.08841856  0.44180616  0.15781201     0.36400
N613        N  0.17169554  0.02415188  0.22702684    -0.38400
N614        N  0.07483982  0.42747660  0.14675276    -0.38400
N615        N  0.08135597  0.02668270  0.22750689    -0.37900
N616        N  0.16637832  0.42594289  0.14598019    -0.37900
C617        C  0.25228464  0.29581271  0.99619810    -0.04600
C618        C  0.27541837  0.27995793  0.00629101    -0.01700
C619        C  0.27596196  0.28020015  0.02652685     0.03300
C620        C  0.25335201  0.29624178  0.03700240    -0.04600
C621        C  0.23045553  0.31247395  0.02694997    -0.01700
C622        C  0.22989516  0.31223122  0.00666445     0.03300
C623        C  0.29918217  0.26382502  0.99583174     0.38000
C624        C  0.20649693  0.32812276  0.03750029     0.38000
C625        C  0.20522215  0.32746074  0.99660153     0.36400
C626        C  0.30035213  0.26445897  0.03658621     0.36400
N627        N  0.18542091  0.33942023  0.98856653    -0.38400
N628        N  0.31983595  0.25197880  0.04461716    -0.38400
N629        N  0.18734795  0.34044401  0.04597965    -0.37900
N630        N  0.31810343  0.25097344  0.98745976    -0.37900
C631        C  0.24645213  0.96304712  0.03583276    -0.04600
C632        C  0.22667917  0.98264871  0.02554812    -0.01700
C633        C  0.22718359  0.98301974  0.00534380     0.03300
C634        C  0.24727281  0.96355173  0.99507818    -0.04600
C635        C  0.26591183  0.44022655  0.00445711    -0.01700
C636        C  0.26572491  0.43994643  0.02470039     0.03300
C637        C  0.20507723  0.00197581  0.03574352     0.38000
C638        C  0.29057921  0.42528372  0.99414812     0.38000
C639        C  0.28970861  0.42397711  0.03498378     0.36400
C640        C  0.20636329  0.00308479  0.99514854     0.36400
N641        N  0.30881812  0.41127327  0.04322553    -0.38400
N642        N  0.18981832  0.01914267  0.98702924    -0.38400
N643        N  0.31037721  0.41359192  0.98590945    -0.37900
N644        N  0.18783015  0.01732631  0.04388270    -0.37900
C645        C  0.41014576  0.28915764  0.09558070    -0.04600
C646        C  0.39407626  0.30619863  0.08166132    -0.01700
C647        C  0.36178966  0.30616501  0.08141596     0.03300
C648        C  0.34521636  0.28898130  0.09503234    -0.04600
C649        C  0.36125184  0.27154136  0.10879354    -0.01700
C650        C  0.39360198  0.27172743  0.10911100     0.03300
C651        C  0.41078038  0.32291843  0.06708558     0.38000
C652        C  0.34450036  0.25427510  0.12309733     0.38000
C653        C  0.40981359  0.25495869  0.12386203     0.36400
C654        C  0.34561013  0.32299273  0.06666800     0.36400
N655        N  0.42273942  0.24170045  0.13567857    -0.38400
N656        N  0.33265177  0.33629710  0.05488810    -0.38400
N657        N  0.33117548  0.24054728  0.13453939    -0.37900
N658        N  0.42414112  0.33608734  0.05541134    -0.37900
C659        C  0.16027508  0.29422759  0.09438618    -0.04600
C660        C  0.14384771  0.27664067  0.08081086    -0.01700
C661        C  0.11149220  0.27655203  0.08085430     0.03300
C662        C  0.09506690  0.29412571  0.09442896    -0.04600
C663        C  0.11147649  0.31278916  0.10746215    -0.01700
C664        C  0.14385355  0.31279213  0.10746448     0.03300
C665        C  0.16020166  0.25966542  0.06614886     0.38000
C666        C  0.09515487  0.33146898  0.12130693     0.38000
C667        C  0.16016764  0.33131988  0.12138302     0.36400
C668        C  0.09511503  0.25940629  0.06628708     0.36400
N669        N  0.17312499  0.34617482  0.13246160    -0.38400
N670        N  0.08201806  0.24587878  0.05462542    -0.38400
N671        N  0.08220504  0.34648596  0.13231007    -0.37900
N672        N  0.17325085  0.24627800  0.05439666    -0.37900
C673        C  0.50027511  0.29514015  0.03764783    -0.04600
C674        C  0.52323484  0.31049089  0.02711538    -0.01700
C675        C  0.52302718  0.30979043  0.00683688     0.03300
C676        C  0.49975023  0.29386884  0.99684431    -0.04600
C677        C  0.97641763  0.27902404  0.00727214    -0.01700
C678        C  0.97670816  0.27962488  0.02752348     0.03300
C679        C  0.54804488  0.32563110  0.03716247     0.38000
C680        C  0.95179669  0.26343108  0.99729787     0.38000
C681        C  0.95245155  0.26451153  0.03810150     0.36400
C682        C  0.54779543  0.32401839  0.99626913     0.36400
N683        N  0.93309871  0.25250296  0.04655109    -0.38400
N684        N  0.56765806  0.33514231  0.98781095    -0.38400
N685        N  0.93214508  0.25104155  0.98932924    -0.37900
N686        N  0.56789098  0.33753418  0.04522981    -0.37900
C687        C  0.34079421  0.96246746  0.09261379    -0.04600
C688        C  0.35684993  0.94603814  0.10685043    -0.01700
C689        C  0.38921724  0.94630082  0.10721801     0.03300
C690        C  0.40587954  0.96276008  0.09324935    -0.04600
C691        C  0.38722504  0.47562827  0.07767078    -0.01700
C692        C  0.35489111  0.47523682  0.07726190     0.03300
C693        C  0.34011369  0.92952850  0.12150660     0.38000
C694        C  0.40406438  0.48919661  0.06192215     0.38000
C695        C  0.33877186  0.48860343  0.06117215     0.36400
C696        C  0.40528919  0.93064945  0.12249854     0.36400
N697        N  0.32586676  0.49917027  0.04833048    -0.38400
N698        N  0.41807776  0.91820860  0.13471343    -0.38400
N699        N  0.41754276  0.49991064  0.04934766    -0.37900
N700        N  0.32678827  0.91624262  0.13315004    -0.37900
C701        C  0.09087533  0.97155233  0.09464228    -0.04600
C702        C  0.10423714  0.44574363  0.08056138    -0.01700
C703        C  0.13657542  0.44524695  0.08051631     0.03300
C704        C  0.15593139  0.97154656  0.09406424    -0.04600
C705        C  0.13990217  0.98853166  0.10810335    -0.01700
C706        C  0.10751228  0.98863873  0.10834054     0.03300
C707        C  0.08749720  0.42846334  0.06621631     0.38000
C708        C  0.15671136  0.00499934  0.12276360     0.38000
C709        C  0.09132512  0.00544999  0.12313385     0.36400
C710        C  0.15267454  0.42708852  0.06630684     0.36400
N711        N  0.07839493  0.01881681  0.13494662    -0.38400
N712        N  0.16554805  0.41269595  0.05495085    -0.38400
N713        N  0.17011871  0.01805921  0.13449462    -0.37900
N714        N  0.07411912  0.41487651  0.05470751    -0.37900
C715        C  0.50134984  0.96037127  0.03681178    -0.04600
C716        C  0.52172906  0.97950018  0.02661106    -0.01700
C717        C  0.52204131  0.97937978  0.00639336     0.03300
C718        C  0.50182891  0.96023313  0.99600028    -0.04600
C719        C  0.97649489  0.43865818  0.00551803    -0.01700
C720        C  0.97652004  0.43874926  0.02579590     0.03300
C721        C  0.54320548  0.99880730  0.03692635     0.38000
C722        C  0.95317699  0.42161886  0.99527228     0.38000
C723        C  0.95346596  0.42149094  0.03610250     0.36400
C724        C  0.54398926  0.99835605  0.99629750     0.36400
N725        N  0.93502795  0.40780357  0.04434344    -0.38400
N726        N  0.56155965  0.01341033  0.98822834    -0.38400
N727        N  0.93449098  0.40821954  0.98704498    -0.37900
N728        N  0.56033949  0.01412324  0.04516041    -0.37900
C729        C  0.21041006  0.24730805  0.49570478    -0.04600
C730        C  0.22613806  0.27031208  0.50605101    -0.01700
C731        C  0.22675781  0.26985820  0.52629691     0.03300
C732        C  0.21098265  0.24682804  0.53655339    -0.04600
C733        C  0.19498566  0.22397541  0.52622513    -0.01700
C734        C  0.19490053  0.22407919  0.50593174     0.03300
C735        C  0.24115342  0.29501994  0.49584783     0.38000
C736        C  0.18008579  0.19926177  0.53646309     0.38000
C737        C  0.18038088  0.19921259  0.49557205     0.36400
C738        C  0.24340235  0.29346692  0.53657589     0.36400
N739        N  0.16906372  0.17925698  0.48726697    -0.38400
N740        N  0.25677208  0.31222551  0.54477773    -0.38400
N741        N  0.16837764  0.17945779  0.54464713    -0.37900
N742        N  0.25300767  0.31476637  0.48768985    -0.37900
C743        C  0.21011053  0.40276404  0.43451740    -0.04600
C744        C  0.22941245  0.38639920  0.42187539    -0.01700
C745        C  0.23049056  0.35407449  0.42247530     0.03300
C746        C  0.21221190  0.33777492  0.43570052    -0.04600
C747        C  0.19229233  0.35413631  0.44795693    -0.01700
C748        C  0.19114741  0.38641265  0.44730720     0.03300
C749        C  0.24733723  0.40276987  0.40771713     0.38000
C750        C  0.17401463  0.33783572  0.46195290     0.38000
C751        C  0.17132351  0.40283216  0.46042342     0.36400
C752        C  0.24968777  0.33758872  0.40900348     0.36400
N753        N  0.15558650  0.41602807  0.47088300    -0.38400
N754        N  0.26492746  0.32446479  0.39820649    -0.38400
N755        N  0.15966151  0.32468560  0.47315844    -0.37900
N756        N  0.26147979  0.41584508  0.39636023    -0.37900
C757        C  0.21579872  0.08788840  0.43738168    -0.04600
C758        C  0.19824487  0.10471728  0.42404492    -0.01700
C759        C  0.19905571  0.13700811  0.42410643     0.03300
C760        C  0.21713191  0.15295396  0.43766214    -0.04600
C761        C  0.23515388  0.13615985  0.45074387    -0.01700
C762        C  0.23468966  0.10380970  0.45050363     0.03300
C763        C  0.18016558  0.08887663  0.40967477     0.38000
C764        C  0.25324280  0.15209640  0.46504261     0.38000
C765        C  0.25298581  0.08699096  0.46424096     0.36400
C766        C  0.18207453  0.15375423  0.40966070     0.36400
N767        N  0.26767094  0.07356516  0.47514486    -0.38400
N768        N  0.16865255  0.16707222  0.39808758    -0.38400
N769        N  0.26760105  0.16480796  0.47647696    -0.37900
N770        N  0.16581467  0.07633795  0.39816079    -0.37900
C771        C  0.20530755  0.49283377  0.49377058    -0.04600
C772        C  0.19167442  0.01735778  0.50515090    -0.01700
C773        C  0.19210123  0.01773130  0.52542538     0.03300
C774        C  0.20805634  0.99486284  0.53568236    -0.04600
C775        C  0.22325772  0.47174112  0.52435150    -0.01700
C776        C  0.22268244  0.47112889  0.50410610     0.03300
C777        C  0.17655731  0.04184130  0.49484405     0.38000
C778        C  0.24126448  0.44920832  0.53459805     0.38000
C779        C  0.23933325  0.44744709  0.49388592     0.36400
C780        C  0.17755099  0.04267301  0.53570826     0.36400
N781        N  0.25244397  0.42850931  0.48568061    -0.38400
N782        N  0.16613924  0.06265402  0.54393900    -0.38400
N783        N  0.25565300  0.43124398  0.54275687    -0.37900
N784        N  0.16463845  0.06143957  0.48660279    -0.37900
C785        C  0.55012360  0.24875504  0.49670247    -0.04600
C786        C  0.53228279  0.22748727  0.50711497    -0.01700
C787        C  0.53150099  0.22848357  0.52733559     0.03300
C788        C  0.54864602  0.25068006  0.53750739    -0.04600
C789        C  0.06603246  0.27186835  0.52701364    -0.01700
C790        C  0.06651500  0.27106294  0.50673535     0.03300
C791        C  0.51501842  0.20409387  0.49703140     0.38000
C792        C  0.08275211  0.29557727  0.53706919     0.38000
C793        C  0.08289347  0.29452805  0.49626947     0.36400
C794        C  0.51339592  0.20611802  0.53771332     0.36400
N795        N  0.09559931  0.31346003  0.48787648    -0.38400
N796        N  0.49898539  0.18828712  0.54599405    -0.38400
N797        N  0.09613658  0.31472383  0.54487450    -0.37900
N798        N  0.50127335  0.18543550  0.48898711    -0.37900
C799        C  0.54773828  0.34200339  0.43910058    -0.04600
C800        C  0.06017365  0.35793678  0.42386264    -0.01700
C801        C  0.05977451  0.39027888  0.42360966     0.03300
C802        C  0.54769836  0.40708152  0.43879862    -0.04600
C803        C  0.53489047  0.39095275  0.45438729    -0.01700
C804        C  0.53479866  0.35858156  0.45450120     0.03300
C805        C  0.07484221  0.34132326  0.40837008     0.38000
C806        C  0.52291364  0.40769503  0.47070736     0.38000
C807        C  0.52263815  0.34231779  0.47091500     0.36400
C808        C  0.07309867  0.40650358  0.40753290     0.36400
N809        N  0.51313556  0.32932629  0.48405232    -0.38400
N810        N  0.08357489  0.41942352  0.39465961    -0.38400
N811        N  0.51355970  0.42110047  0.48375877    -0.37900
N812        N  0.08662233  0.32807982  0.39604311    -0.37900
C813        C  0.54392621  0.09209196  0.43839238    -0.04600
C814        C  0.56058733  0.10843248  0.45241665    -0.01700
C815        C  0.56046715  0.14075098  0.45252108     0.03300
C816        C  0.54341013  0.15707354  0.43872479    -0.04600
C817        C  0.02638165  0.14039670  0.42509975    -0.01700
C818        C  0.02671448  0.10805353  0.42495369     0.03300
C819        C  0.57679589  0.09197300  0.46730062     0.38000
C820        C  0.00865733  0.15677664  0.41086605     0.38000
C821        C  0.00951670  0.09153929  0.41047767     0.36400
C822        C  0.57703532  0.15722139  0.46730862     0.36400
N823        N  0.99591019  0.07837641  0.39888198    -0.38400
N824        N  0.59014515  0.17041312  0.47911291    -0.38400
N825        N  0.99458479  0.16983608  0.39948299    -0.37900
N826        N  0.58949022  0.07880582  0.47924824    -0.37900
C827        C  0.54768560  0.00131485  0.53731386    -0.04600
C828        C  0.53424800  0.52395816  0.52645077    -0.01700
C829        C  0.53447141  0.52411857  0.50619120     0.03300
C830        C  0.54963286  0.00188148  0.49640139    -0.04600
C831        C  0.06692842  0.97967683  0.50697193    -0.01700
C832        C  0.06637790  0.97963024  0.52726620     0.03300
C833        C  0.51675878  0.54697991  0.53672058     0.38000
C834        C  0.08408183  0.95637170  0.49683598     0.38000
C835        C  0.08392019  0.95696531  0.53763826     0.36400
C836        C  0.51702087  0.54713866  0.49598527     0.36400
N837        N  0.09797740  0.93872340  0.54575984    -0.38400
N838        N  0.50318931  0.56554683  0.48783563    -0.38400
N839        N  0.09743525  0.93756345  0.48869837    -0.37900
N840        N  0.50297651  0.56543793  0.54492292    -0.37900
C841        C  0.24096572  0.25416769  0.28621252    -0.04600
C842        C  0.21632533  0.24917772  0.27326240    -0.01700
C843        C  0.22024802  0.25382936  0.25336338     0.03300
C844        C  0.24802605  0.26548479  0.24605589    -0.04600
C845        C  0.27240053  0.27116110  0.25875668    -0.01700
C846        C  0.26946604  0.26425774  0.27849494     0.03300
C847        C  0.18678189  0.23862511  0.28008516     0.38000
C848        C  0.30084112  0.28369047  0.25142179     0.38000
C849        C  0.29636744  0.26701639  0.29050765     0.36400
C850        C  0.19535406  0.24670338  0.24034395     0.36400
N851        N  0.31821377  0.26867789  0.29980918    -0.38400
N852        N  0.17548289  0.24065441  0.23007287    -0.38400
N853        N  0.32343910  0.29394387  0.24562925    -0.37900
N854        N  0.16305357  0.23042943  0.28537984    -0.37900
C855        C  0.22976175  0.40325049  0.34557875    -0.04600
C856        C  0.21017138  0.38677739  0.35795492    -0.01700
C857        C  0.21161359  0.35447320  0.35869220     0.03300
C858        C  0.23286668  0.33829121  0.34719921    -0.04600
C859        C  0.25398816  0.35498290  0.33597470    -0.01700
C860        C  0.25208492  0.38718330  0.33488761     0.03300
C861        C  0.18938258  0.40308779  0.37056592     0.38000
C862        C  0.27758135  0.33926440  0.32521131     0.38000
C863        C  0.27243858  0.40361445  0.32207484     0.36400
C864        C  0.19217746  0.33799058  0.37200631     0.36400
N865        N  0.28862578  0.41667261  0.31182858    -0.38400
N866        N  0.17687602  0.32488197  0.38274752    -0.38400
N867        N  0.29692965  0.32732354  0.31673212    -0.37900
N868        N  0.17298326  0.41607289  0.38074684    -0.37900
C869        C  0.22269747  0.08822004  0.34254456    -0.04600
C870        C  0.21197159  0.10473388  0.32653554    -0.01700
C871        C  0.21309463  0.13713392  0.32642413     0.03300
C872        C  0.22492113  0.15332507  0.34233576    -0.04600
C873        C  0.23505943  0.13675487  0.35849858    -0.01700
C874        C  0.23396010  0.10441223  0.35859542     0.03300
C875        C  0.20091931  0.08831227  0.30984944     0.38000
C876        C  0.24582818  0.15302361  0.37532233     0.38000
C877        C  0.24365500  0.08777096  0.37548654     0.36400
C878        C  0.20329201  0.15371113  0.30956813     0.36400
N879        N  0.25129247  0.07447951  0.38896699    -0.38400
N880        N  0.19558926  0.16678297  0.29602566    -0.38400
N881        N  0.25434256  0.16598218  0.38876226    -0.37900
N882        N  0.19220454  0.07513044  0.29654413    -0.37900
C883        C  0.23376251  0.99083434  0.28552032    -0.04600
C884        C  0.25713789  0.00740139  0.27598292    -0.01700
C885        C  0.26161659  0.00401592  0.25602171     0.03300
C886        C  0.24243423  0.98455246  0.24517999    -0.04600
C887        C  0.21836626  0.46575756  0.25385842    -0.01700
C888        C  0.21525292  0.46855163  0.27394354     0.03300
C889        C  0.27615043  0.02878115  0.28654755     0.38000
C890        C  0.19746279  0.44611905  0.24333694     0.38000
C891        C  0.19323441  0.44936528  0.28383091     0.36400
C892        C  0.28668791  0.01992330  0.24672801     0.36400
N893        N  0.17571188  0.43397404  0.29167466    -0.38400
N894        N  0.30677238  0.03246622  0.23931282    -0.38400
N895        N  0.18069039  0.43061940  0.23492780    -0.37900
N896        N  0.29125231  0.04590391  0.29496422    -0.37900
C897        C  0.52026493  0.25627779  0.28714060    -0.04600
C898        C  0.49661844  0.27564389  0.28018999    -0.01700
C899        C  0.49249154  0.28019286  0.26027859     0.03300
C900        C  0.51248289  0.26638688  0.24693217    -0.04600
C901        C  0.03691732  0.24789045  0.25374552    -0.01700
C902        C  0.04041469  0.24248673  0.27362358     0.03300
C903        C  0.47718663  0.29222603  0.29348366     0.38000
C904        C  0.05944211  0.23579808  0.24045637     0.38000
C905        C  0.06467078  0.22237029  0.28011712     0.36400
C906        C  0.46711228  0.29863417  0.25351621     0.36400
N907        N  0.08402349  0.20627441  0.28523848    -0.38400
N908        N  0.44681113  0.31324773  0.24810569    -0.38400
N909        N  0.07757654  0.22644224  0.22987973    -0.37900
N910        N  0.46181444  0.30563152  0.30407080    -0.37900
C911        C  0.53275290  0.34085620  0.34529895    -0.04600
C912        C  0.04500630  0.35677567  0.32954477    -0.01700
C913        C  0.04553543  0.38909577  0.32952883     0.03300
C914        C  0.53263660  0.40578380  0.34486576    -0.04600
C915        C  0.51948906  0.38972216  0.36038023    -0.01700
C916        C  0.51984766  0.35741875  0.36068754     0.03300
C917        C  0.05607193  0.33999580  0.31297327     0.38000
C918        C  0.50657215  0.40643065  0.37643337     0.38000
C919        C  0.50777601  0.34122090  0.37715496     0.36400
C920        C  0.05923997  0.40518783  0.31352707     0.36400
N921        N  0.49831214  0.32827447  0.39032156    -0.38400
N922        N  0.07020424  0.41794770  0.30074628    -0.38400
N923        N  0.49634213  0.41975043  0.38925638    -0.37900
N924        N  0.06456098  0.32658841  0.29969401    -0.37900
C925        C  0.52882570  0.09078808  0.34449525    -0.04600
C926        C  0.51029430  0.10727110  0.33153442    -0.01700
C927        C  0.51094561  0.13965685  0.33134332     0.03300
C928        C  0.52944523  0.15594436  0.34447543    -0.04600
C929        C  0.04674547  0.13948715  0.35803288    -0.01700
C930        C  0.04662874  0.10711200  0.35800364     0.03300
C931        C  0.49117553  0.09092701  0.31797303     0.38000
C932        C  0.06399261  0.15590819  0.37253070     0.38000
C933        C  0.06439356  0.09064584  0.37218919     0.36400
C934        C  0.49353999  0.15622002  0.31705243     0.36400
N935        N  0.07846624  0.07753017  0.38354843    -0.38400
N936        N  0.47984653  0.16949240  0.30558769    -0.38400
N937        N  0.07754356  0.16895025  0.38420639    -0.37900
N938        N  0.47587626  0.07789066  0.30717536    -0.37900
C939        C  0.50671779  0.98778426  0.24676771    -0.04600
C940        C  0.01673568  0.01649350  0.25535139    -0.01700
C941        C  0.02388288  0.01834301  0.27510114     0.03300
C942        C  0.51819833  0.99302570  0.28706887    -0.04600
C943        C  0.50467456  0.46554185  0.27859298    -0.01700
C944        C  0.50024484  0.46223833  0.25858756     0.03300
C945        C  0.01909379  0.04415546  0.24400668     0.38000
C946        C  0.49743428  0.44025089  0.29124390     0.38000
C947        C  0.49008605  0.43280686  0.25132556     0.36400
C948        C  0.03617698  0.04649597  0.28304083     0.36400
N949        N  0.48223736  0.40913974  0.24569681    -0.38400
N950        N  0.04624202  0.06888082  0.28929723    -0.38400
N951        N  0.49122429  0.42008360  0.30122324    -0.37900
N952        N  0.02081662  0.06642094  0.23512730    -0.37900
C953        C  0.40850091  0.27391011  0.84717432    -0.04600
C954        C  0.39224242  0.24711536  0.84180118    -0.01700
C955        C  0.35987430  0.24687909  0.84161448     0.03300
C956        C  0.34313339  0.27333779  0.84691030    -0.04600
C957        C  0.35936068  0.29897594  0.85413547    -0.01700
C958        C  0.39167454  0.29937649  0.85412647     0.03300
C959        C  0.40845871  0.21940703  0.83645448     0.38000
C960        C  0.34296674  0.32453782  0.86265148     0.38000
C961        C  0.40738141  0.32577402  0.86214020     0.36400
C962        C  0.34409296  0.21906144  0.83597661     0.36400
N963        N  0.41976407  0.34684081  0.86856709    -0.38400
N964        N  0.33182420  0.19657038  0.83174465    -0.38400
N965        N  0.33004510  0.34485079  0.86959025    -0.37900
N966        N  0.42104539  0.19697605  0.83248251    -0.37900
C967        C  0.09338118  0.28348059  0.84141665    -0.04600
C968        C  0.10986288  0.30908267  0.84845340    -0.01700
C969        C  0.14218906  0.30885788  0.84861120     0.03300
C970        C  0.15846074  0.28315127  0.84155914    -0.04600
C971        C  0.14202414  0.25924436  0.83255417    -0.01700
C972        C  0.10975733  0.25927192  0.83259934     0.03300
C973        C  0.09384985  0.33597993  0.85543642     0.38000
C974        C  0.15824615  0.23546987  0.82209936     0.38000
C975        C  0.09355570  0.23506982  0.82255930     0.36400
C976        C  0.15847342  0.33536503  0.85592543     0.36400
N977        N  0.08072485  0.21584236  0.81444081    -0.38400
N978        N  0.17143097  0.35674886  0.86142797    -0.38400
N979        N  0.17120879  0.21676068  0.81360716    -0.37900
N980        N  0.08123368  0.35772160  0.86066874    -0.37900
C981        C  0.40244455  0.47454879  0.84203610    -0.04600
C982        C  0.38640888  0.46194214  0.82631247    -0.01700
C983        C  0.35402905  0.46146480  0.82619362     0.03300
C984        C  0.33735088  0.47359611  0.84179560    -0.04600
C985        C  0.35704161  0.99426552  0.85823946    -0.01700
C986        C  0.38941681  0.99444382  0.85851106     0.03300
C987        C  0.40325206  0.45048567  0.80989639     0.38000
C988        C  0.34018928  0.00782285  0.87402515     0.38000
C989        C  0.40546615  0.00810239  0.87457762     0.36400
C990        C  0.33784359  0.44947009  0.80968240     0.36400
N991        N  0.41825488  0.01887899  0.88743107    -0.38400
N992        N  0.32486913  0.44001350  0.79650335    -0.38400
N993        N  0.32679316  0.01853001  0.88666456    -0.37900
N994        N  0.41675634  0.44149158  0.79679212    -0.37900
C995        C  0.08739583  0.47262044  0.84421181    -0.04600
C996        C  0.10371610  0.45502964  0.85775433    -0.01700
C997        C  0.13608416  0.45471832  0.85756901     0.03300
C998        C  0.15237424  0.47200755  0.84383146    -0.04600
C999        C  0.13987323  0.99691676  0.83152517    -0.01700
C1000       C  0.10757406  0.99762372  0.83181887     0.03300
C1001       C  0.08723326  0.43801190  0.87229544     0.38000
C1002       C  0.15638233  0.01514565  0.81756705     0.38000
C1003       C  0.09128419  0.01704111  0.81843114     0.36400
C1004       C  0.15259632  0.43748635  0.87197124     0.36400
N1005       N  0.07827931  0.03250872  0.80775108    -0.38400
N1006       N  0.16573308  0.42384343  0.88352559    -0.38400
N1007       N  0.16959149  0.02951718  0.80639065    -0.37900
N1008       N  0.07410770  0.42451127  0.88392752    -0.37900
C1009       C  0.23262876  0.25502871  0.74668624    -0.04600
C1010       C  0.25506117  0.23783985  0.75659091    -0.01700
C1011       C  0.26076932  0.24309732  0.77629540     0.03300
C1012       C  0.24397762  0.26542929  0.78656720    -0.04600
C1013       C  0.22089910  0.28199598  0.77681693    -0.01700
C1014       C  0.21540934  0.27699817  0.75704454     0.03300
C1015       C  0.27177182  0.21390934  0.74664840     0.38000
C1016       C  0.20181981  0.30344688  0.78729482     0.38000
C1017       C  0.19252559  0.29525210  0.74729123     0.36400
C1018       C  0.28458453  0.22584950  0.78583951     0.36400
N1019       N  0.17427927  0.30984913  0.73952518    -0.38400
N1020       N  0.30370966  0.21197250  0.79326566    -0.38400
N1021       N  0.18648718  0.32041985  0.79567304    -0.37900
N1022       N  0.28498988  0.19473765  0.73872951    -0.37900
C1023       C  0.22246870  0.40571185  0.68671354    -0.04600
C1024       C  0.20504616  0.38893935  0.67326897    -0.01700
C1025       C  0.20492063  0.35664673  0.67375475     0.03300
C1026       C  0.22212222  0.34090427  0.68774182    -0.04600
C1027       C  0.23865881  0.35770552  0.70159690    -0.01700
C1028       C  0.23900880  0.38999808  0.70100687     0.03300
C1029       C  0.18769417  0.40489728  0.65866626     0.38000
C1030       C  0.25380585  0.34180506  0.71714851     0.38000
C1031       C  0.25514404  0.40709661  0.71570201     0.36400
C1032       C  0.18748535  0.33963956  0.65961510     0.36400
N1033       N  0.26787120  0.42075382  0.72746505    -0.38400
N1034       N  0.17359838  0.32611252  0.64831630    -0.38400
N1035       N  0.26557312  0.32912259  0.72966344    -0.37900
N1036       N  0.17391107  0.41763593  0.64700530    -0.37900
C1037       C  0.22333530  0.15597973  0.68915600    -0.04600
C1038       C  0.20590094  0.13935160  0.70266748    -0.01700
C1039       C  0.20537035  0.10699144  0.70218031     0.03300
C1040       C  0.22281775  0.09073261  0.68842852    -0.04600
C1041       C  0.23991569  0.10737490  0.67474585    -0.01700
C1042       C  0.24000174  0.13976019  0.67502541     0.03300
C1043       C  0.18916021  0.15548120  0.71752917     0.38000
C1044       C  0.25623050  0.09124520  0.65970345     0.38000
C1045       C  0.25603660  0.15635517  0.66010130     0.36400
C1046       C  0.18719210  0.09049143  0.71615661     0.36400
N1047       N  0.26866206  0.16956512  0.64812553    -0.38400
N1048       N  0.17251714  0.07737367  0.72722705    -0.38400
N1049       N  0.26914620  0.07839654  0.64766201    -0.37900
N1050       N  0.17586769  0.16835960  0.72939652    -0.37900
C1051       C  0.23227239  0.99355106  0.74546830    -0.04600
C1052       C  0.21082576  0.47186420  0.75501310    -0.01700
C1053       C  0.21496863  0.46706048  0.77489938     0.03300
C1054       C  0.23890533  0.48191660  0.78488734    -0.04600
C1055       C  0.26014865  0.00666565  0.77500594    -0.01700
C1056       C  0.25536208  0.01041211  0.75509985     0.03300
C1057       C  0.18660749  0.45549456  0.74514420     0.38000
C1058       C  0.28475975  0.02318689  0.78438900     0.38000
C1059       C  0.27394949  0.03224180  0.74464622     0.36400
C1060       C  0.19394454  0.44731044  0.78518711     0.36400
N1061       N  0.28879099  0.04965772  0.73631978    -0.38400
N1062       N  0.17718311  0.43156754  0.79339536    -0.38400
N1063       N  0.30445878  0.03623404  0.79188788    -0.37900
N1064       N  0.16728246  0.44240053  0.73730316    -0.37900
C1065       C  0.51033525  0.26206211  0.74613047    -0.04600
C1066       C  0.49236372  0.24144350  0.75687972    -0.01700
C1067       C  0.48887340  0.24538316  0.77689500     0.03300
C1068       C  0.50346780  0.26996103  0.78656385    -0.04600
C1069       C  0.02027909  0.29075420  0.77540770    -0.01700
C1070       C  0.02325541  0.28698462  0.75535689     0.03300
C1071       C  0.47814618  0.21548215  0.74742454     0.38000
C1072       C  0.03617955  0.31586951  0.78470667     0.38000
C1073       C  0.04007940  0.30951976  0.74430608     0.36400
C1074       C  0.46959217  0.22426838  0.78736435     0.36400
N1075       N  0.05337243  0.32751923  0.73545946    -0.38400
N1076       N  0.45411125  0.20720400  0.79549377    -0.38400
N1077       N  0.04894373  0.33590248  0.79206359    -0.37900
N1078       N  0.46688899  0.19474100  0.73987717    -0.37900
C1079       C  0.51986995  0.41106013  0.68600133    -0.04600
C1080       C  0.49845375  0.39484350  0.69728121    -0.01700
C1081       C  0.49803231  0.36251918  0.69710690     0.03300
C1082       C  0.51957617  0.34597595  0.68603219    -0.04600
C1083       C  0.04026123  0.36219760  0.67445921    -0.01700
C1084       C  0.04043984  0.39454003  0.67437826     0.03300
C1085       C  0.47772304  0.41133845  0.70985594     0.38000
C1086       C  0.06105011  0.34560460  0.66198165     0.38000
C1087       C  0.06109444  0.41071834  0.66164713     0.36400
C1088       C  0.47596888  0.34637505  0.70889415     0.36400
N1089       N  0.07750800  0.42359338  0.65144471    -0.38400
N1090       N  0.45825065  0.33352245  0.71821748    -0.38400
N1091       N  0.07763167  0.33244548  0.65201042    -0.37900
N1092       N  0.46131131  0.42448197  0.71994419    -0.37900
C1093       C  0.52423373  0.09612806  0.69031812    -0.04600
C1094       C  0.51523157  0.11241678  0.67381991    -0.01700
C1095       C  0.51483875  0.14475140  0.67390960     0.03300
C1096       C  0.52359744  0.16115545  0.69047606    -0.04600
C1097       C  0.03240803  0.14493332  0.70626004    -0.01700
C1098       C  0.03259288  0.11254518  0.70621759     0.03300
C1099       C  0.50746478  0.09581123  0.65650078     0.38000
C1100       C  0.04236592  0.16157078  0.72312300     0.38000
C1101       C  0.04250649  0.09606652  0.72310268     0.36400
C1102       C  0.50643612  0.16123812  0.65670741     0.36400
N1103       N  0.05027382  0.08284995  0.73658184    -0.38400
N1104       N  0.49988149  0.17460555  0.64304352    -0.38400
N1105       N  0.05022389  0.17494045  0.73656174    -0.37900
N1106       N  0.50149705  0.08229356  0.64275152    -0.37900
C1107       C  0.50078835  0.48427733  0.78557399    -0.04600
C1108       C  0.48885758  0.01278739  0.77678596    -0.01700
C1109       C  0.49338092  0.01700636  0.75688905     0.03300
C1110       C  0.50992987  0.49464033  0.74551673    -0.04600
C1111       C  0.02403534  0.46961732  0.75479966    -0.01700
C1112       C  0.01962112  0.46456898  0.77462991     0.03300
C1113       C  0.46786369  0.03275918  0.78695673     0.38000
C1114       C  0.04239515  0.44822226  0.74377192     0.38000
C1115       C  0.03533505  0.43924858  0.78374924     0.36400
C1116       C  0.47867178  0.04243953  0.74725761     0.36400
N1117       N  0.04788553  0.41900675  0.79095923    -0.38400
N1118       N  0.46704537  0.06279677  0.73958678    -0.38400
N1119       N  0.05694486  0.43112171  0.73495955    -0.37900
N1120       N  0.45104569  0.04863761  0.79505197    -0.37900
O1121       O  0.49205265  0.50335504  0.71332824    -0.71000
O1122       O  0.50386753  0.00372627  0.66019113    -0.71200
O1123       O  0.49861793  0.96031310  0.68722523    -0.71100
O1124       O  0.49920150  0.54780558  0.68666182    -0.71100
O1125       O  0.04800570  0.54619216  0.69238989    -0.71000
O1126       O  0.04765815  0.96016087  0.68906687    -0.71100
O1127       O  0.05268773  0.50559228  0.66320148    -0.71000
O1128       O  0.04216053  0.00090460  0.71774799    -0.71200
V1129       V  0.49995228  0.00385849  0.68734931     1.35200
V1130       V  0.04630496  0.00367109  0.69064520     1.35200
C1131       C  0.01576815  0.00112310  0.72524785     0.78200
C1132       C  0.02994067  0.50513642  0.65197847     0.78300
C1133       C  0.52333409  0.94524771  0.68775554     0.78200
C1134       C  0.52408172  0.56182510  0.68971736     0.78100
O1135       O  0.04404519  0.75753760  0.71708507    -0.71000
O1136       O  0.05404149  0.75095952  0.66292994    -0.71200
O1137       O  0.04836473  0.79759313  0.68799754    -0.71100
O1138       O  0.04983556  0.71061082  0.69206126    -0.71100
O1139       O  0.50113873  0.70937344  0.68655383    -0.71000
O1140       O  0.49892258  0.79642350  0.68587178    -0.71100
O1141       O  0.50491791  0.75228734  0.65917247    -0.71000
O1142       O  0.49504766  0.75356460  0.71329257    -0.71200
V1143       V  0.04814589  0.75411313  0.68995408     1.35200
V1144       V  0.50097037  0.75290949  0.68629951     1.35200
C1145       C  0.51787529  0.75657518  0.72426935     0.78200
C1146       C  0.53126153  0.75116599  0.65169728     0.78300
C1147       C  0.52337304  0.81191637  0.68648572     0.78200
C1148       C  0.52594125  0.69517039  0.68940735     0.78100
O1149       O  0.25140231  0.99760864  0.71331360    -0.71000
O1150       O  0.24237980  0.49861785  0.65833079    -0.71200
O1151       O  0.24523943  0.54204299  0.68572946    -0.71100
O1152       O  0.24656242  0.95418190  0.68631250    -0.71100
O1153       O  0.19693504  0.95483459  0.68830984    -0.71000
O1154       O  0.19586592  0.54093761  0.68889641    -0.71100
O1155       O  0.19361218  0.99919958  0.66188913    -0.71000
O1156       O  0.20085444  0.49608361  0.71549170    -0.71200
V1157       V  0.24519973  0.49836069  0.68553183     1.35200
V1158       V  0.19767172  0.49745941  0.68816911     1.35200
C1159       C  0.22701028  0.49562656  0.72337993     0.78200
C1160       C  0.21640637  0.49829672  0.65034663     0.78300
C1161       C  0.22018534  0.55642783  0.68733360     0.78200
C1162       C  0.22149163  0.93971972  0.68717429     0.78100
O1163       O  0.24792881  0.74998729  0.71290644    -0.71000
O1164       O  0.23996271  0.74751797  0.65873882    -0.71200
O1165       O  0.24396629  0.79209264  0.68535539    -0.71100
O1166       O  0.24365366  0.70503024  0.68637948    -0.71100
O1167       O  0.19423716  0.70528281  0.68941975    -0.71000
O1168       O  0.19439445  0.79230630  0.68786358    -0.71100
O1169       O  0.19043462  0.74751389  0.66138587    -0.71000
O1170       O  0.19860941  0.75043986  0.71595301    -0.71200
V1171       V  0.24287741  0.74860360  0.68589450     1.35200
V1172       V  0.19535452  0.74882693  0.68861886     1.35200
C1173       C  0.22480473  0.75128851  0.72377721     0.78200
C1174       C  0.21397884  0.74718064  0.65078183     0.78300
C1175       C  0.21923007  0.80699028  0.68655532     0.78200
C1176       C  0.21885655  0.69023400  0.68790060     0.78100
O1177       O  0.99961809  0.95995600  0.81576778    -0.71000
O1178       O  0.49740836  0.95092744  0.87004853    -0.71200
O1179       O  0.45501950  0.95544257  0.84211900    -0.71100
O1180       O  0.04171340  0.95492885  0.84364807    -0.71100
O1181       O  0.03884307  0.49810935  0.84516876    -0.71000
O1182       O  0.45158540  0.49890318  0.84478229    -0.71100
O1183       O  0.99477216  0.49427417  0.87203559    -0.71000
O1184       O  0.49601221  0.50309996  0.81790779    -0.71200
V1185       V  0.49855606  0.95600220  0.84295633     1.35200
V1186       V  0.49522327  0.49752778  0.84492710     1.35200
C1187       C  0.50065913  0.98533603  0.80792933     0.78200
C1188       C  0.49801121  0.97431348  0.88075241     0.78300
C1189       C  0.44028440  0.98020670  0.84388548     0.78200
C1190       C  0.05703648  0.97942143  0.84474780     0.78100
O1191       O  0.99765023  0.74431871  0.81787284    -0.71000
O1192       O  0.49742395  0.75144564  0.87181982    -0.71200
O1193       O  0.45389411  0.74631665  0.84490142    -0.71100
O1194       O  0.04060022  0.74964850  0.84486146    -0.71100
O1195       O  0.03873437  0.79931591  0.84376214    -0.71000
O1196       O  0.45224073  0.79539781  0.84110922    -0.71100
O1197       O  0.99333781  0.80085342  0.86979185    -0.71000
O1198       O  0.49793425  0.79384713  0.81505803    -0.71200
V1199       V  0.49735513  0.74884086  0.84459547     1.35200
V1200       V  0.49570801  0.79635123  0.84224893     1.35200
C1201       C  0.49925669  0.76795777  0.80692903     0.78200
C1202       C  0.49560090  0.77737726  0.87984453     0.78300
C1203       C  0.43802898  0.77036003  0.84317630     0.78200
C1204       C  0.05442351  0.77503572  0.84425853     0.78100
O1205       O  0.24638565  0.95735783  0.81492316    -0.71000
O1206       O  0.25072376  0.95036306  0.86926493    -0.71200
O1207       O  0.20528372  0.95311148  0.84337089    -0.71100
O1208       O  0.29237608  0.95462317  0.84089014    -0.71100
O1209       O  0.28821492  0.49772090  0.84409868    -0.71000
O1210       O  0.20111356  0.49709461  0.84401323    -0.71100
O1211       O  0.24473201  0.49345943  0.87111304    -0.71000
O1212       O  0.24442696  0.50149962  0.81687531    -0.71200
V1213       V  0.24878249  0.95481202  0.84214445     1.35200
V1214       V  0.24466135  0.49646794  0.84395849     1.35200
C1215       C  0.24579760  0.98332381  0.80690551     0.78200
C1216       C  0.24981090  0.97398130  0.87975659     0.78300
C1217       C  0.19017638  0.97777102  0.84415853     0.78200
C1218       C  0.30695181  0.97948958  0.84281630     0.78100
O1219       O  0.24458808  0.74286252  0.81703804    -0.71000
O1220       O  0.24381485  0.75025984  0.87141404    -0.71200
O1221       O  0.20090293  0.74795549  0.84385116    -0.71100
O1222       O  0.28790947  0.74544407  0.84478566    -0.71100
O1223       O  0.28913949  0.79432064  0.83996626    -0.71000
O1224       O  0.20251159  0.79765183  0.84341320    -0.71100
O1225       O  0.24851901  0.79956881  0.86882465    -0.71000
O1226       O  0.24245265  0.79233263  0.81450325    -0.71200
V1227       V  0.24438346  0.74754602  0.84419549     1.35200
V1228       V  0.24574604  0.79503095  0.84171015     1.35200
C1229       C  0.24220857  0.76628997  0.80651162     0.78200
C1230       C  0.24630640  0.77616107  0.87938491     0.78300
C1231       C  0.18693016  0.77330960  0.84376812     0.78200
C1232       C  0.30356095  0.76955996  0.84256093     0.78100
O1233       O  0.04731034  0.49891912  0.31447689    -0.71000
O1234       O  0.06166415  0.99879936  0.36979841    -0.71200
O1235       O  0.05782000  0.95561177  0.34216172    -0.71100
O1236       O  0.05233451  0.54223903  0.34217589    -0.71100
O1237       O  0.50338342  0.54104894  0.34487301    -0.71000
O1238       O  0.50912027  0.95383573  0.34778506    -0.71100
O1239       O  0.51067843  0.49924499  0.37289280    -0.71000
O1240       O  0.50107338  0.99454876  0.31958049    -0.71200
V1241       V  0.05247621  0.49871147  0.34176108     1.35200
V1242       V  0.50581826  0.49741388  0.34584675     1.35200
C1243       C  0.52116936  0.49609596  0.30750315     0.78200
C1244       C  0.53718443  0.49890888  0.38015969     0.78300
C1245       C  0.53411461  0.93990060  0.34496871     0.78200
C1246       C  0.52776356  0.55662970  0.34363165     0.78100
O1247       O  0.50086783  0.75144660  0.31894285    -0.71000
O1248       O  0.51230964  0.74820053  0.37287207    -0.71200
O1249       O  0.50834004  0.79299251  0.34690690    -0.71100
O1250       O  0.50500433  0.70593048  0.34502174    -0.71100
O1251       O  0.05401985  0.70407658  0.34204604    -0.71000
O1252       O  0.05706668  0.79114801  0.34161376    -0.71100
O1253       O  0.06103957  0.74789906  0.36901310    -0.71000
O1254       O  0.04976266  0.74789815  0.31458139    -0.71200
V1255       V  0.50760836  0.74950286  0.34584088     1.35200
V1256       V  0.05453644  0.74769336  0.34186375     1.35200
C1257       C  0.52337379  0.75108556  0.30753742     0.78200
C1258       C  0.53878149  0.74844162  0.38018662     0.78300
C1259       C  0.53337120  0.80698160  0.34443780     0.78200
C1260       C  0.52924781  0.69021981  0.34362645     0.78100
O1261       O  0.25367869  0.49528299  0.31648162    -0.71000
O1262       O  0.24412547  0.99658666  0.37182890    -0.71200
O1263       O  0.24925840  0.95264897  0.34522588    -0.71100
O1264       O  0.24729850  0.54012606  0.34291771    -0.71100
O1265       O  0.19806032  0.53772305  0.33881036    -0.71000
O1266       O  0.19971234  0.95158764  0.34303936    -0.71100
O1267       O  0.19539890  0.49658893  0.36768052    -0.71000
O1268       O  0.20367282  0.99302305  0.31455578    -0.71200
V1269       V  0.24837173  0.49667605  0.34358422     1.35200
V1270       V  0.20093161  0.49416590  0.34065688     1.35200
C1271       C  0.23056869  0.49215794  0.30571048     0.78200
C1272       C  0.21865787  0.49724625  0.37843346     0.78300
C1273       C  0.22477503  0.93724749  0.34447170     0.78200
C1274       C  0.22205946  0.55373253  0.34063504     0.78100
O1275       O  0.25445906  0.74510402  0.31696279    -0.71000
O1276       O  0.24377613  0.74421489  0.37102438    -0.71200
O1277       O  0.24763993  0.70094681  0.34366863    -0.71100
O1278       O  0.25044079  0.78815720  0.34449983    -0.71100
O1279       O  0.20090693  0.78961905  0.34243285    -0.71000
O1280       O  0.19875677  0.70263326  0.33813366    -0.71100
O1281       O  0.19441493  0.74333509  0.36742631    -0.71000
O1282       O  0.20557897  0.74952355  0.31320866    -0.71200
V1283       V  0.24811516  0.74457904  0.34394880     1.35200
V1284       V  0.20082783  0.74616071  0.34034812     1.35200
C1285       C  0.23201829  0.74842154  0.30571179     0.78200
C1286       C  0.21739561  0.74366860  0.37848117     0.78300
C1287       C  0.22275604  0.68693580  0.34062328     0.78200
C1288       C  0.22605469  0.80377602  0.34397292     0.78100
O1289       O  0.52419882  0.50136960  0.46619914    -0.71000
O1290       O  0.51878079  0.99775971  0.41204380    -0.71200
O1291       O  0.52234587  0.95553960  0.43999886    -0.71100
O1292       O  0.51983663  0.54266688  0.43782092    -0.71100
O1293       O  0.06906199  0.54297883  0.43711941    -0.71000
O1294       O  0.07036345  0.95599531  0.43689763    -0.71100
O1295       O  0.06592843  0.50008177  0.40924726    -0.71000
O1296       O  0.07231031  0.99869164  0.46497954    -0.71200
V1297       V  0.52183620  0.49916703  0.43900632     1.35200
V1298       V  0.06833862  0.49944832  0.43666383     1.35200
C1299       C  0.55001219  0.50105368  0.47440380     0.78200
C1300       C  0.54080376  0.49886495  0.40126250     0.78300
C1301       C  0.54744298  0.94126409  0.43845491     0.78200
C1302       C  0.54440021  0.55797387  0.43734706     0.78100
O1303       O  0.52431855  0.74831597  0.46593187    -0.71000
O1304       O  0.51870685  0.75137081  0.41170419    -0.71200
O1305       O  0.52047931  0.70647733  0.43770515    -0.71100
O1306       O  0.52295117  0.79360058  0.43987893    -0.71100
O1307       O  0.07067946  0.79245310  0.43609411    -0.71000
O1308       O  0.06976705  0.70541155  0.43741482    -0.71100
O1309       O  0.06727114  0.74773151  0.40937285    -0.71000
O1310       O  0.07283190  0.75009989  0.46415324    -0.71200
V1311       V  0.52260259  0.74998541  0.43875920     1.35200
V1312       V  0.06922096  0.74893285  0.43680098     1.35200
C1313       C  0.54992542  0.74894321  0.47433877     0.78200
C1314       C  0.54222280  0.74924290  0.40124025     0.78300
C1315       C  0.54500180  0.69110138  0.43738991     0.78200
C1316       C  0.54802497  0.80788760  0.43814538     0.78100
O1317       O  0.18328749  0.49522124  0.46205811    -0.71000
O1318       O  0.18948094  0.99646250  0.40883345    -0.71200
O1319       O  0.18504867  0.95300307  0.43605324    -0.71100
O1320       O  0.18691100  0.53902131  0.43502624    -0.71100
O1321       O  0.23633421  0.53842170  0.43795495    -0.71000
O1322       O  0.23470053  0.95093773  0.43653156    -0.71100
O1323       O  0.23918011  0.49663792  0.40986164    -0.71000
O1324       O  0.23402531  0.99263877  0.46499600    -0.71200
V1325       V  0.18793802  0.99653018  0.43615748     1.35200
V1326       V  0.23555506  0.99441971  0.43781922     1.35200
C1327       C  0.20855203  0.99457802  0.47352417     0.78200
C1328       C  0.21526743  0.99658332  0.40055997     0.78300
C1329       C  0.20927651  0.93712465  0.43589080     0.78200
C1330       C  0.21179539  0.55361981  0.43652002     0.78100
O1331       O  0.23231618  0.74787558  0.46423050    -0.71000
O1332       O  0.23783886  0.74416342  0.40995363    -0.71200
O1333       O  0.23416540  0.78953890  0.43586003    -0.71100
O1334       O  0.23565638  0.70246212  0.43811199    -0.71100
O1335       O  0.18622007  0.70152660  0.43524890    -0.71000
O1336       O  0.18449780  0.78845090  0.43496084    -0.71100
O1337       O  0.18826570  0.74458053  0.40773256    -0.71000
O1338       O  0.18278846  0.74506928  0.46249782    -0.71200
V1339       V  0.23400358  0.74598199  0.43702005     1.35200
V1340       V  0.18637915  0.74495893  0.43515684     1.35200
C1341       C  0.20673910  0.74674728  0.47269350     0.78200
C1342       C  0.21417347  0.74399355  0.39955750     0.78300
C1343       C  0.20901654  0.80384805  0.43514024     0.78200
C1344       C  0.21117554  0.68710686  0.43673593     0.78100
O1345       O  0.49726697  0.48444175  0.06559500    -0.71000
O1346       O  0.99374708  0.49165072  0.11981565    -0.71200
O1347       O  0.03901538  0.48867985  0.09373576    -0.71100
O1348       O  0.45188201  0.48731602  0.09161033    -0.71100
O1349       O  0.45573412  0.93994750  0.09587696    -0.71000
O1350       O  0.04268122  0.94542557  0.09561519    -0.71100
O1351       O  0.49933964  0.94482562  0.12302093    -0.71000
O1352       O  0.99919287  0.94138286  0.06853914    -0.71200
V1353       V  0.49544401  0.48702293  0.09275066     1.35200
V1354       V  0.49925175  0.94258953  0.09570574     1.35200
C1355       C  0.49675502  0.45855679  0.05744840     0.78200
C1356       C  0.49496213  0.46818907  0.13040387     0.78300
C1357       C  0.05406416  0.46395200  0.09415407     0.78200
C1358       C  0.43728759  0.46246770  0.09344765     0.78100
O1359       O  0.49909237  0.81458959  0.06815729    -0.71000
O1360       O  0.99883973  0.80917863  0.12271291    -0.71200
O1361       O  0.04324503  0.81196547  0.09594369    -0.71100
O1362       O  0.45590147  0.81217196  0.09540974    -0.71100
O1363       O  0.45647176  0.76250240  0.09421274    -0.71000
O1364       O  0.04307036  0.76260094  0.09217899    -0.71100
O1365       O  0.50043410  0.76090468  0.12105733    -0.71000
O1366       O  0.99758542  0.76524731  0.06616386    -0.71200
V1367       V  0.49935861  0.81176139  0.09552024     1.35200
V1368       V  0.50009230  0.76409570  0.09400092     1.35200
C1369       C  0.49868139  0.79035092  0.05811567     0.78200
C1370       C  0.49982488  0.78478548  0.13127375     0.78300
C1371       C  0.05801550  0.78726472  0.09402188     0.78200
C1372       C  0.44134291  0.78720133  0.09467937     0.78100
O1373       O  0.24360633  0.48386982  0.06453149    -0.71000
O1374       O  0.24848560  0.48986339  0.11865675    -0.71200
O1375       O  0.28958321  0.48608596  0.09014218    -0.71100
O1376       O  0.20256895  0.48747531  0.09311355    -0.71100
O1377       O  0.20367869  0.94466383  0.09431240    -0.71000
O1378       O  0.29064779  0.94020296  0.09455356    -0.71100
O1379       O  0.24730674  0.94497846  0.12174070    -0.71000
O1380       O  0.24721391  0.94018010  0.06719758    -0.71200
V1381       V  0.24606712  0.48585155  0.09164111     1.35200
V1382       V  0.24722404  0.94345426  0.09443574     1.35200
C1383       C  0.24416092  0.45814451  0.05622248     0.78200
C1384       C  0.24754722  0.46619932  0.12899852     0.78300
C1385       C  0.30416307  0.46123728  0.09194191     0.78200
C1386       C  0.18739392  0.46281666  0.09353477     0.78100
O1387       O  0.24783765  0.81587131  0.06701984    -0.71000
O1388       O  0.25168352  0.80945647  0.12154823    -0.71200
O1389       O  0.29327350  0.81293417  0.09319042    -0.71100
O1390       O  0.20613651  0.81242680  0.09551488    -0.71100
O1391       O  0.20629325  0.76316177  0.09127891    -0.71000
O1392       O  0.29335963  0.76323440  0.09261778    -0.71100
O1393       O  0.24916425  0.75995457  0.11902077    -0.71000
O1394       O  0.25102060  0.76637592  0.06481408    -0.71200
V1395       V  0.24971337  0.81176241  0.09425386     1.35200
V1396       V  0.24988629  0.76416262  0.09196855     1.35200
C1397       C  0.24948643  0.79211542  0.05663871     0.78200
C1398       C  0.25101300  0.78347632  0.12953191     0.78300
C1399       C  0.30817069  0.78809242  0.09302738     0.78200
C1400       C  0.19134678  0.78772145  0.09349522     0.78100
O1401       O  0.50276102  0.95833302  0.21722024    -0.71000
O1402       O  0.99717116  0.95156351  0.16296158    -0.71200
O1403       O  0.04303656  0.95467455  0.18845768    -0.71100
O1404       O  0.45633536  0.95413955  0.19158417    -0.71100
O1405       O  0.45318705  0.50078252  0.18702388    -0.71000
O1406       O  0.04029930  0.50306759  0.18537776    -0.71100
O1407       O  0.49561051  0.49760799  0.15918719    -0.71000
O1408       O  0.99814305  0.50640704  0.21344809    -0.71200
V1409       V  0.49988806  0.95509105  0.18998226     1.35200
V1410       V  0.49679804  0.50110271  0.18637617     1.35200
C1411       C  0.50123077  0.48364364  0.22443807     0.78200
C1412       C  0.49521411  0.47138308  0.15145935     0.78300
C1413       C  0.05575413  0.47858109  0.18572383     0.78200
C1414       C  0.43905680  0.47571163  0.18914591     0.78100
O1415       O  0.50506868  0.74524320  0.21372069    -0.71000
O1416       O  0.99996342  0.75367827  0.15930748    -0.71200
O1417       O  0.04567541  0.74931921  0.18473935    -0.71100
O1418       O  0.45875545  0.74968590  0.18813065    -0.71100
O1419       O  0.45803300  0.79915037  0.19101850    -0.71000
O1420       O  0.04498186  0.79844671  0.18946609    -0.71100
O1421       O  0.50056252  0.80502795  0.16328585    -0.71000
O1422       O  0.00290597  0.79222696  0.21726597    -0.71200
V1423       V  0.50228629  0.75148208  0.18682156     1.35200
V1424       V  0.50159781  0.79887622  0.19041371     1.35200
C1425       C  0.50553594  0.76799916  0.22493932     0.78200
C1426       C  0.50003746  0.78191138  0.15231741     0.78300
C1427       C  0.06015246  0.77418077  0.18676462     0.78200
C1428       C  0.44348902  0.77420519  0.18958603     0.78100
O1429       O  0.24665165  0.95594043  0.21581829    -0.71000
O1430       O  0.25078137  0.94923076  0.16148397    -0.71200
O1431       O  0.29260443  0.95272136  0.18986090    -0.71100
O1432       O  0.20553324  0.95253094  0.18733869    -0.71100
O1433       O  0.20438068  0.50030300  0.18429275    -0.71000
O1434       O  0.29120139  0.49775677  0.18545014    -0.71100
O1435       O  0.24848317  0.49503473  0.15784185    -0.71000
O1436       O  0.24668017  0.50293125  0.21207968    -0.71200
V1437       V  0.24901240  0.95355804  0.18860233     1.35200
V1438       V  0.24772703  0.49801838  0.18498180     1.35200
C1439       C  0.24412367  0.47961316  0.22267679     0.78200
C1440       C  0.24822836  0.46895981  0.14995577     0.78300
C1441       C  0.30756612  0.97745023  0.18846649     0.78200
C1442       C  0.19087982  0.97743671  0.18651149     0.78100
O1443       O  0.24847035  0.74309628  0.21179803    -0.71000
O1444       O  0.25270717  0.75382948  0.15791541    -0.71200
O1445       O  0.29462280  0.74769600  0.18604368    -0.71100
O1446       O  0.20749163  0.74970927  0.18362909    -0.71100
O1447       O  0.20846871  0.79880091  0.18848017    -0.71000
O1448       O  0.29533358  0.79716654  0.18892212    -0.71100
O1449       O  0.25214263  0.80321099  0.16157546    -0.71000
O1450       O  0.25108577  0.79233294  0.21589709    -0.71200
V1451       V  0.25097330  0.74954988  0.18493067     1.35200
V1452       V  0.25184045  0.79692806  0.18866163     1.35200
C1453       C  0.24847504  0.76580485  0.22302553     0.78200
C1454       C  0.25213314  0.78019419  0.15052214     0.78300
C1455       C  0.30988558  0.77224244  0.18759304     0.78200
C1456       C  0.19315315  0.77463000  0.18582690     0.78100
O1457       O  0.99768991  0.48364331  0.96544627    -0.71000
O1458       O  0.49332283  0.48889857  0.91122899    -0.71200
O1459       O  0.45190677  0.48640611  0.93984221    -0.71100
O1460       O  0.03899178  0.48598862  0.93690119    -0.71100
O1461       O  0.04291482  0.94398106  0.93730496    -0.71000
O1462       O  0.45587795  0.94164487  0.93669760    -0.71100
O1463       O  0.99950162  0.94683278  0.90986767    -0.71000
O1464       O  0.49929713  0.93861271  0.96417332    -0.71200
V1465       V  0.49546856  0.48515782  0.93832892     1.35200
V1466       V  0.49943449  0.94294042  0.93697071     1.35200
C1467       C  0.49692205  0.45783536  0.97389042     0.78200
C1468       C  0.49827685  0.97138302  0.90175469     0.78300
C1469       C  0.44089416  0.96622521  0.93861455     0.78200
C1470       C  0.05772934  0.96885604  0.93769046     0.78100
O1471       O  0.49698362  0.76299261  0.96555799    -0.71000
O1472       O  0.99626609  0.75640715  0.91173371    -0.71200
O1473       O  0.03815340  0.75974006  0.93992788    -0.71100
O1474       O  0.45304168  0.75835325  0.93868836    -0.71100
O1475       O  0.45169372  0.80786856  0.93607661    -0.71000
O1476       O  0.03827421  0.80861854  0.93536683    -0.71100
O1477       O  0.49545575  0.80599022  0.90902717    -0.71000
O1478       O  0.99696425  0.81224521  0.96394272    -0.64800
V1479       V  0.49655759  0.76066182  0.93834057     1.35200
V1480       V  0.49508408  0.80824854  0.93631674     1.35200
C1481       C  0.49511285  0.78865504  0.97396018     0.78200
C1482       C  0.49567529  0.78007065  0.90087881     0.78300
C1483       C  0.05329064  0.78414062  0.93746948     0.78200
C1484       C  0.43756969  0.78272569  0.93740947     0.78100
O1485       O  0.24964487  0.94095149  0.96357814    -0.71000
O1486       O  0.24893637  0.94588375  0.90905758    -0.71200
O1487       O  0.29282144  0.94307484  0.93597817    -0.71100
O1488       O  0.20575268  0.94352504  0.93667729    -0.71100
O1489       O  0.20149565  0.48560194  0.93610629    -0.71000
O1490       O  0.28856731  0.48657605  0.93887784    -0.71100
O1491       O  0.24702494  0.48873193  0.91031848    -0.71000
O1492       O  0.24279100  0.48359572  0.96456575    -0.71200
V1493       V  0.24930584  0.94430887  0.93635090     1.35200
V1494       V  0.24501662  0.48516301  0.93741885     1.35200
C1495       C  0.24403836  0.45802445  0.97296644     0.78200
C1496       C  0.24642487  0.46489900  0.90001963     0.78300
C1497       C  0.30372032  0.46200800  0.93735970     0.78200
C1498       C  0.18695314  0.46055573  0.93578821     0.78100
O1499       O  0.24482605  0.81228504  0.96281131    -0.71000
O1500       O  0.24823953  0.80490989  0.90843311    -0.71200
O1501       O  0.20312018  0.80836857  0.93444975    -0.71100
O1502       O  0.28999339  0.80855124  0.93663130    -0.71100
O1503       O  0.28980416  0.75884020  0.93685847    -0.71000
O1504       O  0.20295254  0.75959236  0.93946249    -0.71100
O1505       O  0.24447042  0.75551795  0.91097625    -0.71000
O1506       O  0.24859555  0.76289600  0.96529647    -0.71200
V1507       V  0.24653490  0.80761241  0.93564515     1.35200
V1508       V  0.24641432  0.76012671  0.93810073     1.35200
C1509       C  0.24702600  0.78884274  0.97333340     0.78200
C1510       C  0.24639394  0.77896953  0.90043747     0.78300
C1511       C  0.18796101  0.78401724  0.93690052     0.78200
C1512       C  0.30472307  0.78363184  0.93670437     0.78100
O1513       O  0.51909217  0.99868176  0.56664161    -0.71000
O1514       O  0.51163036  0.50259576  0.61977776    -0.71200
O1515       O  0.51539112  0.54389827  0.59126752    -0.71100
O1516       O  0.51707352  0.95699865  0.59515902    -0.71100
O1517       O  0.06601657  0.95948208  0.59855667    -0.71000
O1518       O  0.06368881  0.54585271  0.59489410    -0.71100
O1519       O  0.05937577  0.00489866  0.62396662    -0.71000
O1520       O  0.07063301  0.50052761  0.56909742    -0.71200
V1521       V  0.51802298  0.50069703  0.59278060     1.35200
V1522       V  0.06462576  0.50263543  0.59629723     1.35200
C1523       C  0.54861146  0.50042537  0.55813856     0.78200
C1524       C  0.53439532  0.50435672  0.63091615     0.78300
C1525       C  0.53939136  0.55989524  0.59255169     0.78200
C1526       C  0.54239581  0.94346585  0.59753674     0.78100
O1527       O  0.06955961  0.75204053  0.56881354    -0.71000
O1528       O  0.06076853  0.74931596  0.62325697    -0.71200
O1529       O  0.06344615  0.70749056  0.59502669    -0.71100
O1530       O  0.06675437  0.79388541  0.59751025    -0.71100
O1531       O  0.51793397  0.79625757  0.59378950    -0.71000
O1532       O  0.51485082  0.70945835  0.59174925    -0.71100
O1533       O  0.51174331  0.75180180  0.61987093    -0.71000
O1534       O  0.52069702  0.75352180  0.56567099    -0.71200
V1535       V  0.06418589  0.75072920  0.59603802     1.35200
V1536       V  0.51725407  0.75278193  0.59283187     1.35200
C1537       C  0.54683659  0.75248747  0.55789912     0.78200
C1538       C  0.53488433  0.75063573  0.63071567     0.78300
C1539       C  0.53902339  0.69365160  0.59277022     0.78200
C1540       C  0.54302503  0.81008902  0.59649280     0.78100
O1541       O  0.18525272  0.99763844  0.56705289    -0.71000
O1542       O  0.18839302  0.49550537  0.62086117    -0.71200
O1543       O  0.18502845  0.53937171  0.59398162    -0.71100
O1544       O  0.18648133  0.95314400  0.59368350    -0.71100
O1545       O  0.23619052  0.95239196  0.59391153    -0.71000
O1546       O  0.23442226  0.54034682  0.59047922    -0.71100
O1547       O  0.23884002  0.99768559  0.62005425    -0.71000
O1548       O  0.23311736  0.49453400  0.56457249    -0.71200
V1549       V  0.18689093  0.49584426  0.59349065     1.35200
V1550       V  0.23453209  0.49682326  0.59180823     1.35200
C1551       C  0.20755527  0.49494833  0.55605320     0.78200
C1552       C  0.21402791  0.49767365  0.62921659     0.78300
C1553       C  0.20942154  0.55470389  0.59219713     0.78200
C1554       C  0.21111205  0.93791680  0.59376185     0.78100
O1555       O  0.18216502  0.74476959  0.56644674    -0.71000
O1556       O  0.18613646  0.74792468  0.62115580    -0.71200
O1557       O  0.18429507  0.79001899  0.59282235    -0.71100
O1558       O  0.18399964  0.70281670  0.59477638    -0.71100
O1559       O  0.23342762  0.70269663  0.59142112    -0.71000
O1560       O  0.23400862  0.78972035  0.59331047    -0.71100
O1561       O  0.23569321  0.74497782  0.61955362    -0.71000
O1562       O  0.23172290  0.74765490  0.56513040    -0.71200
V1563       V  0.18506407  0.74638609  0.59377277     1.35200
V1564       V  0.23273400  0.74622689  0.59238160     1.35200
C1565       C  0.20633497  0.74632624  0.55644961     0.78200
C1566       C  0.21170327  0.74659911  0.62965813     0.78300
C1567       C  0.20926990  0.80471585  0.59310073     0.78200
C1568       C  0.20867587  0.68790413  0.59307283     0.78100
C1569       C  0.21063111  0.90382628  0.59359101    -0.04600
C1570       C  0.19560626  0.88781950  0.57870452    -0.01700
C1571       C  0.19526253  0.85546274  0.57849308     0.03300
C1572       C  0.20967178  0.83879327  0.59326231    -0.04600
C1573       C  0.22504736  0.85478751  0.60801065    -0.01700
C1574       C  0.22561840  0.88713750  0.60813541     0.03300
C1575       C  0.18170377  0.90461097  0.56307892     0.38000
C1576       C  0.23977343  0.83795043  0.62332856     0.38000
C1577       C  0.24115601  0.90326174  0.62348532     0.36400
C1578       C  0.18131085  0.83931934  0.56256357     0.36400
N1579       N  0.25355860  0.91612937  0.63572113    -0.38400
N1580       N  0.17019713  0.82645489  0.54985087    -0.38400
N1581       N  0.25146472  0.82450145  0.63555508    -0.37900
N1582       N  0.17066768  0.91795453  0.55057426    -0.37900
C1583       C  0.20863829  0.65381510  0.59283660    -0.04600
C1584       C  0.22285171  0.63776257  0.57765579    -0.01700
C1585       C  0.22286322  0.60542205  0.57736170     0.03300
C1586       C  0.20880299  0.58878196  0.59229408    -0.04600
C1587       C  0.19460714  0.60481997  0.60749507    -0.01700
C1588       C  0.19457029  0.63717935  0.60778110     0.03300
C1589       C  0.23677903  0.65454377  0.56200963     0.38000
C1590       C  0.18111367  0.58803122  0.62328839     0.38000
C1591       C  0.18132880  0.65331759  0.62395610     0.36400
C1592       C  0.23644479  0.58926296  0.56130514     0.36400
N1593       N  0.17092992  0.66614284  0.63692481    -0.38400
N1594       N  0.24716762  0.57634605  0.54847646    -0.38400
N1595       N  0.17043523  0.57462068  0.63589892    -0.37900
N1596       N  0.24787004  0.66798706  0.54955347    -0.37900
C1597       C  0.54416403  0.84416394  0.59869951    -0.04600
C1598       C  0.51863820  0.86035299  0.60605621    -0.01700
C1599       C  0.51858079  0.89266036  0.60642505     0.03300
C1600       C  0.54396529  0.90934804  0.59933360    -0.04600
C1601       C  0.07066929  0.89284526  0.59443671    -0.01700
C1602       C  0.07072200  0.86056031  0.59409263     0.03300
C1603       C  0.49302075  0.84391766  0.61440199     0.38000
C1604       C  0.09866175  0.90900533  0.58967571     0.38000
C1605       C  0.09874470  0.84470743  0.58901756     0.36400
C1606       C  0.49297267  0.90853761  0.61522189     0.36400
N1607       N  0.12116116  0.83191137  0.58534073    -0.38400
N1608       N  0.47266861  0.92111282  0.62240481    -0.38400
N1609       N  0.12114705  0.92184306  0.58621686    -0.37900
N1610       N  0.47269635  0.83089419  0.62121722    -0.37900
C1611       C  0.53842790  0.59407152  0.59114692    -0.04600
C1612       C  0.51102057  0.61048815  0.59482282    -0.01700
C1613       C  0.51096037  0.64280422  0.59491978     0.03300
C1614       C  0.53834191  0.65940096  0.59145192    -0.04600
C1615       C  0.06445274  0.64267142  0.58644202    -0.01700
C1616       C  0.06428005  0.61043026  0.58594474     0.03300
C1617       C  0.48257711  0.59449316  0.59881442     0.38000
C1618       C  0.09256096  0.65849817  0.58135197     0.38000
C1619       C  0.09173242  0.59460131  0.57956953     0.36400
C1620       C  0.48240951  0.65857742  0.59898522     0.36400
N1621       N  0.11366221  0.58217092  0.57447910    -0.38400
N1622       N  0.45950982  0.67088079  0.60217699    -0.38400
N1623       N  0.11511729  0.67088424  0.57741283    -0.37900
N1624       N  0.45977362  0.58195633  0.60194338    -0.37900
C1625       C  0.40359484  0.78216058  0.93752700    -0.04600
C1626       C  0.38727919  0.80155232  0.95012381    -0.01700
C1627       C  0.35501280  0.80217427  0.94977320     0.03300
C1628       C  0.33872796  0.78341434  0.93679213    -0.04600
C1629       C  0.35505472  0.76415360  0.92408984    -0.01700
C1630       C  0.38735202  0.76324474  0.92462143     0.03300
C1631       C  0.40369177  0.82015499  0.96396676     0.38000
C1632       C  0.33873647  0.74652898  0.90971197     0.38000
C1633       C  0.40384589  0.74362719  0.91138028     0.36400
C1634       C  0.33860657  0.82157112  0.96318694     0.36400
N1635       N  0.41694045  0.72791898  0.90082974    -0.38400
N1636       N  0.32550467  0.83700171  0.97389012    -0.38400
N1637       N  0.32574972  0.73271397  0.89813229    -0.37900
N1638       N  0.41682687  0.83489467  0.97502004    -0.37900
C1639       C  0.08778282  0.78417351  0.93701553    -0.04600
C1640       C  0.10436245  0.75677578  0.93350988    -0.01700
C1641       C  0.13674325  0.75675857  0.93335299     0.03300
C1642       C  0.15346848  0.78411789  0.93674977    -0.04600
C1643       C  0.13687961  0.81164423  0.93981597    -0.01700
C1644       C  0.10452738  0.81170846  0.93984874     0.03300
C1645       C  0.08841376  0.72834878  0.92934616     0.38000
C1646       C  0.15276199  0.84035540  0.94323762     0.38000
C1647       C  0.08884666  0.84062584  0.94294843     0.36400
C1648       C  0.15252977  0.72830200  0.92903844     0.36400
N1649       N  0.07655199  0.86378910  0.94530290    -0.38400
N1650       N  0.16488811  0.70551734  0.92559601    -0.38400
N1651       N  0.16522893  0.86334691  0.94590346    -0.37900
N1652       N  0.07590895  0.70559518  0.92600868    -0.37900
C1653       C  0.40277399  0.46191836  0.93820931    -0.04600
C1654       C  0.38620339  0.47550747  0.95338676    -0.01700
C1655       C  0.35382794  0.47578792  0.95307505     0.03300
C1656       C  0.33778141  0.46220181  0.93767357    -0.04600
C1657       C  0.35833542  0.95409138  0.92254490    -0.01700
C1658       C  0.39067102  0.95346904  0.92285833     0.03300
C1659       C  0.40243944  0.48787138  0.96977877     0.38000
C1660       C  0.34202185  0.94211026  0.90606832     0.38000
C1661       C  0.40731023  0.94067894  0.90674077     0.36400
C1662       C  0.33702442  0.48893316  0.96901136     0.36400
N1663       N  0.42055074  0.93050686  0.89386826    -0.38400
N1664       N  0.32360675  0.49931883  0.98174552    -0.38400
N1665       N  0.32900206  0.93266903  0.89290172    -0.37900
N1666       N  0.41540858  0.49750476  0.98291230    -0.37900
C1667       C  0.08772408  0.46054900  0.93594191    -0.04600
C1668       C  0.10406048  0.47909031  0.92288143    -0.01700
C1669       C  0.13641359  0.47869628  0.92261328     0.03300
C1670       C  0.15282543  0.46014568  0.93560818    -0.04600
C1671       C  0.14065874  0.95098722  0.95071757    -0.01700
C1672       C  0.10830788  0.95104525  0.95086806     0.03300
C1673       C  0.08760618  0.49786394  0.90922361     0.38000
C1674       C  0.15722179  0.93380724  0.96513137     0.38000
C1675       C  0.09197569  0.93369909  0.96532563     0.36400
C1676       C  0.15278808  0.49650576  0.90839975     0.36400
N1677       N  0.07892229  0.91993360  0.97687089    -0.38400
N1678       N  0.16586612  0.51053046  0.89698939    -0.38400
N1679       N  0.17044445  0.92019429  0.97665816    -0.37900
N1680       N  0.07451362  0.51282295  0.89830914    -0.37900
C1681       C  0.40928305  0.77374968  0.18918892    -0.04600
C1682       C  0.39298438  0.79451501  0.17747539    -0.01700
C1683       C  0.36065980  0.79354597  0.17667500     0.03300
C1684       C  0.34410458  0.77211932  0.18778827    -0.04600
C1685       C  0.36040094  0.75122787  0.19938551    -0.01700
C1686       C  0.39275847  0.75208999  0.20011170     0.03300
C1687       C  0.40942969  0.81638468  0.16570579     0.38000
C1688       C  0.34389328  0.72939858  0.21111419     0.38000
C1689       C  0.40898717  0.73145556  0.21278626     0.36400
C1690       C  0.34453716  0.81381209  0.16369010     0.36400
N1691       N  0.42199939  0.71510640  0.22293039    -0.38400
N1692       N  0.33173066  0.82985862  0.15325541    -0.38400
N1693       N  0.33073350  0.71197176  0.22046823    -0.37900
N1694       N  0.42245357  0.83390074  0.15633782    -0.37900
C1695       C  0.15912270  0.77544955  0.18558361    -0.04600
C1696       C  0.14262362  0.75929316  0.17138987    -0.01700
C1697       C  0.11031264  0.75901914  0.17168017     0.03300
C1698       C  0.09417490  0.77487542  0.18618086    -0.04600
C1699       C  0.11068041  0.79146831  0.20017495    -0.01700
C1700       C  0.14295547  0.79203887  0.19975622     0.03300
C1701       C  0.15883454  0.74401667  0.15595479     0.38000
C1702       C  0.09455104  0.80685761  0.21560532     0.38000
C1703       C  0.15945877  0.80893141  0.21439493     0.36400
C1704       C  0.09371970  0.74318916  0.15663785     0.36400
N1705       N  0.17260397  0.82244384  0.22604108    -0.38400
N1706       N  0.08052882  0.73060598  0.14461313    -0.38400
N1707       N  0.08170066  0.81902373  0.22794825    -0.37900
N1708       N  0.17176469  0.73198995  0.14359061    -0.37900
C1709       C  0.33962246  0.47225480  0.18742570    -0.04600
C1710       C  0.35618058  0.48930302  0.17368443    -0.01700
C1711       C  0.38849140  0.49060217  0.17436575     0.03300
C1712       C  0.40482325  0.47449114  0.18864920    -0.04600
C1713       C  0.39037731  0.96055198  0.20278321    -0.01700
C1714       C  0.35801576  0.95990153  0.20228913     0.03300
C1715       C  0.34004441  0.50443250  0.15820711     0.38000
C1716       C  0.40640560  0.94362235  0.21751715     0.38000
C1717       C  0.34143877  0.94169454  0.21620858     0.36400
C1718       C  0.40490408  0.50771342  0.15983091     0.36400
N1719       N  0.32820163  0.92713398  0.22728069    -0.38400
N1720       N  0.41791742  0.52137840  0.14822132    -0.38400
N1721       N  0.41901443  0.93017575  0.22937128    -0.37900
N1722       N  0.32718281  0.51630286  0.14580200    -0.37900
C1723       C  0.15473445  0.47736163  0.18439563    -0.04600
C1724       C  0.14017142  0.96106551  0.17277738    -0.01700
C1725       C  0.10782617  0.96158415  0.17301584     0.03300
C1726       C  0.08978244  0.47912588  0.18463727    -0.04600
C1727       C  0.10678148  0.49822619  0.19703840    -0.01700
C1728       C  0.13904226  0.49719017  0.19702134     0.03300
C1729       C  0.15619160  0.94426763  0.15790366     0.38000
C1730       C  0.09123272  0.51833911  0.21037377     0.38000
C1731       C  0.15605734  0.51576723  0.21059969     0.36400
C1732       C  0.09079716  0.94510123  0.15845275     0.36400
N1733       N  0.16963665  0.53053796  0.22142671    -0.38400
N1734       N  0.07723585  0.93204450  0.14678894    -0.38400
N1735       N  0.07928428  0.53464189  0.22107210    -0.37900
N1736       N  0.16898761  0.93101374  0.14598409    -0.37900
C1737       C  0.24833810  0.79157160  0.99462196    -0.04600
C1738       C  0.27349252  0.77931960  0.00475222    -0.01700
C1739       C  0.27428873  0.78053220  0.02496013     0.03300
C1740       C  0.24991216  0.79392255  0.03532138    -0.04600
C1741       C  0.22531390  0.80726160  0.02520175    -0.01700
C1742       C  0.22443870  0.80592483  0.00494910     0.03300
C1743       C  0.29893165  0.76587525  0.99435838     0.38000
C1744       C  0.20025152  0.82127030  0.03564823     0.38000
C1745       C  0.19807115  0.81783672  0.99483096     0.36400
C1746       C  0.30068019  0.76864153  0.03511260     0.36400
N1747       N  0.17684135  0.82717606  0.98686975    -0.38400
N1748       N  0.32179540  0.75930152  0.04320159    -0.38400
N1749       N  0.18025302  0.83244243  0.04398311    -0.37900
N1750       N  0.31925982  0.75517620  0.98609637    -0.37900
C1751       C  0.24308680  0.45630388  0.03494541    -0.04600
C1752       C  0.22002943  0.47204947  0.02475229    -0.01700
C1753       C  0.21996480  0.47197122  0.00453822     0.03300
C1754       C  0.24314971  0.45642438  0.99426776    -0.04600
C1755       C  0.26649787  0.94335466  0.00535920    -0.01700
C1756       C  0.26617834  0.94320496  0.02561245     0.03300
C1757       C  0.19585462  0.48779447  0.03508442     0.38000
C1758       C  0.28776977  0.92370603  0.99517188     0.38000
C1759       C  0.28736553  0.92371211  0.03591475     0.36400
C1760       C  0.19551495  0.48732233  0.99429858     0.36400
N1761       N  0.30434063  0.90828742  0.04416170    -0.38400
N1762       N  0.17597568  0.49947037  0.98612145    -0.38400
N1763       N  0.30477202  0.90806554  0.98705004    -0.37900
N1764       N  0.17658803  0.50030351  0.04335159    -0.37900
C1765       C  0.40727212  0.78712469  0.09418298    -0.04600
C1766       C  0.39150643  0.80575768  0.08091719    -0.01700
C1767       C  0.35918255  0.80636007  0.08066799     0.03300
C1768       C  0.34225362  0.78797964  0.09349435    -0.04600
C1769       C  0.35802672  0.76929873  0.10674853    -0.01700
C1770       C  0.39036454  0.76890503  0.10709998     0.03300
C1771       C  0.40854814  0.82336844  0.06691618     0.38000
C1772       C  0.34101316  0.75139269  0.12062198     0.38000
C1773       C  0.40620702  0.75058989  0.12127608     0.36400
C1774       C  0.34338093  0.82516636  0.06672759     0.36400
N1775       N  0.41883238  0.73603704  0.13261188    -0.38400
N1776       N  0.33076035  0.84011458  0.05559469    -0.38400
N1777       N  0.32745889  0.73718042  0.13172108    -0.37900
N1778       N  0.42218412  0.83722377  0.05568518    -0.37900
C1779       C  0.15721735  0.78754125  0.09367819    -0.04600
C1780       C  0.14074268  0.77425315  0.07835385    -0.01700
C1781       C  0.10837915  0.77416379  0.07847430     0.03300
C1782       C  0.09212678  0.78728127  0.09393871    -0.04600
C1783       C  0.10858107  0.80049882  0.10929729    -0.01700
C1784       C  0.14095443  0.80058674  0.10918157     0.03300
C1785       C  0.15707690  0.76148889  0.06211365     0.38000
C1786       C  0.09220992  0.81304747  0.12559627     0.38000
C1787       C  0.15752345  0.81298999  0.12543298     0.36400
C1788       C  0.09177887  0.76151997  0.06231044     0.36400
N1789       N  0.17072311  0.82273282  0.13844304    -0.38400
N1790       N  0.07850521  0.75153337  0.04940315    -0.38400
N1791       N  0.07915995  0.82296756  0.13862109    -0.37900
N1792       N  0.17009494  0.75134914  0.04914373    -0.37900
C1793       C  0.49642540  0.79102225  0.03658527    -0.04600
C1794       C  0.50770576  0.81608445  0.02583985    -0.01700
C1795       C  0.50499125  0.81652110  0.00561833     0.03300
C1796       C  0.49389754  0.79053192  0.99553084    -0.04600
C1797       C  0.97172492  0.77663889  0.00647941    -0.01700
C1798       C  0.97243678  0.77745634  0.02671217     0.03300
C1799       C  0.52339664  0.84109537  0.03537929     0.38000
C1800       C  0.94645104  0.76168307  0.99675954     0.38000
C1801       C  0.94771551  0.76358878  0.03753751     0.36400
C1802       C  0.51292680  0.84432743  0.99547412     0.36400
N1803       N  0.92796922  0.75261373  0.04617877    -0.38400
N1804       N  0.51860990  0.86692482  0.98762257    -0.38400
N1805       N  0.92631659  0.74975615  0.98898912    -0.37900
N1806       N  0.53621581  0.86093830  0.04289518    -0.37900
C1807       C  0.33823134  0.46093702  0.09210118    -0.04600
C1808       C  0.35423703  0.44683314  0.10729932    -0.01700
C1809       C  0.38656379  0.44754060  0.10782211     0.03300
C1810       C  0.40322283  0.46193985  0.09300525    -0.04600
C1811       C  0.38979903  0.97807468  0.07854616    -0.01700
C1812       C  0.35745873  0.97781680  0.07819283     0.03300
C1813       C  0.33744993  0.43246842  0.12279965     0.38000
C1814       C  0.40653782  0.99327053  0.06334548     0.38000
C1815       C  0.34131036  0.99215880  0.06243981     0.36400
C1816       C  0.40261393  0.43459440  0.12407964     0.36400
N1817       N  0.32836428  0.00332562  0.04981407    -0.38400
N1818       N  0.41537607  0.42442118  0.13710163    -0.38400
N1819       N  0.41990274  0.00531208  0.05120160    -0.37900
N1820       N  0.32408859  0.42097990  0.13515445    -0.37900
C1821       C  0.08817787  0.46407259  0.09390862    -0.04600
C1822       C  0.10691941  0.95511226  0.08036901    -0.01700
C1823       C  0.13925113  0.95528541  0.08000498     0.03300
C1824       C  0.15326403  0.46322976  0.09373893    -0.04600
C1825       C  0.13720719  0.48183326  0.10695326    -0.01700
C1826       C  0.10483959  0.48232920  0.10699433     0.03300
C1827       C  0.09011914  0.93877071  0.06562713     0.38000
C1828       C  0.15394144  0.49963013  0.12103964     0.38000
C1829       C  0.08870051  0.50101624  0.12090963     0.36400
C1830       C  0.15537040  0.93969012  0.06465669     0.36400
N1831       N  0.07582462  0.51593286  0.13199899    -0.38400
N1832       N  0.16824394  0.92746191  0.05234823    -0.38400
N1833       N  0.16726227  0.51373044  0.13233172    -0.37900
N1834       N  0.07668464  0.92580225  0.05386747    -0.37900
C1835       C  0.49804175  0.45634312  0.03609359    -0.04600
C1836       C  0.52009773  0.47338481  0.02579733    -0.01700
C1837       C  0.52005299  0.47338672  0.00556060     0.03300
C1838       C  0.49805021  0.45619033  0.99527683    -0.04600
C1839       C  0.98324064  0.94223593  0.00635537    -0.01700
C1840       C  0.98293807  0.94244719  0.02663204     0.03300
C1841       C  0.54356157  0.49027681  0.03605372     0.38000
C1842       C  0.96367939  0.92093829  0.99610786     0.38000
C1843       C  0.96288072  0.92164313  0.03680463     0.36400
C1844       C  0.54320722  0.49066962  0.99532456     0.36400
N1845       N  0.94682897  0.90507604  0.04494432    -0.38400
N1846       N  0.56167786  0.50445114  0.98716814    -0.38400
N1847       N  0.94812008  0.90392265  0.98795953    -0.37900
N1848       N  0.56231040  0.50360627  0.04427748    -0.37900
C1849       C  0.20522998  0.74734069  0.49412518    -0.04600
C1850       C  0.22099458  0.77023321  0.50454367    -0.01700
C1851       C  0.22113652  0.76995375  0.52480146     0.03300
C1852       C  0.20519880  0.74697818  0.53501076    -0.04600
C1853       C  0.18909360  0.72428163  0.52460826    -0.01700
C1854       C  0.18933099  0.72431740  0.50430630     0.03300
C1855       C  0.23670618  0.79455913  0.49440050     0.38000
C1856       C  0.17365313  0.69982559  0.53476260     0.38000
C1857       C  0.17490472  0.69946013  0.49389595     0.36400
C1858       C  0.23730539  0.79380662  0.53515617     0.36400
N1859       N  0.16375545  0.67946339  0.48554528    -0.38400
N1860       N  0.25019328  0.81280923  0.54343953    -0.38400
N1861       N  0.16146233  0.68019082  0.54282582    -0.37900
N1862       N  0.24920280  0.81396472  0.48629827    -0.37900
C1863       C  0.20806892  0.90303624  0.43502747    -0.04600
C1864       C  0.22643530  0.88680484  0.42177000    -0.01700
C1865       C  0.22666441  0.85444438  0.42171224     0.03300
C1866       C  0.20823505  0.83795340  0.43475167    -0.04600
C1867       C  0.18919117  0.85419141  0.44759743    -0.01700
C1868       C  0.18915783  0.88652296  0.44775973     0.03300
C1869       C  0.24435598  0.90338780  0.40770521     0.38000
C1870       C  0.17080151  0.83760739  0.46139655     0.38000
C1871       C  0.17080489  0.90276602  0.46175324     0.36400
C1872       C  0.24530138  0.83814518  0.40784758     0.36400
N1873       N  0.15636713  0.91582191  0.47298232    -0.38400
N1874       N  0.26015427  0.82516481  0.39677525    -0.38400
N1875       N  0.15637340  0.82416246  0.47242402    -0.37900
N1876       N  0.25850874  0.91662053  0.39642478    -0.37900
C1877       C  0.21208523  0.58779506  0.43641189    -0.04600
C1878       C  0.19269199  0.60413411  0.42382405    -0.01700
C1879       C  0.19253379  0.63644835  0.42388447     0.03300
C1880       C  0.21161552  0.65295081  0.43662028    -0.04600
C1881       C  0.23112581  0.63664512  0.44912146    -0.01700
C1882       C  0.23162792  0.60430269  0.44886344     0.03300
C1883       C  0.17376457  0.58782246  0.41009867     0.38000
C1884       C  0.24981649  0.65303764  0.46291488     0.38000
C1885       C  0.25181297  0.58810896  0.46184764     0.36400
C1886       C  0.17344323  0.65262229  0.41023610     0.36400
N1887       N  0.26805196  0.57521056  0.47212319    -0.38400
N1888       N  0.15828173  0.66546841  0.39931176    -0.38400
N1889       N  0.26462484  0.66607837  0.47397433    -0.37900
N1890       N  0.15874765  0.57491624  0.39908631    -0.37900
C1891       C  0.20719002  0.99409923  0.49489847    -0.04600
C1892       C  0.18754644  0.51441888  0.50401750    -0.01700
C1893       C  0.18780229  0.51480230  0.52430263     0.03300
C1894       C  0.20598721  0.49372112  0.53463154    -0.04600
C1895       C  0.22330457  0.97145848  0.52540739    -0.01700
C1896       C  0.22270793  0.97098150  0.50517693     0.03300
C1897       C  0.17027666  0.53738640  0.49368866     0.38000
C1898       C  0.23917892  0.94737058  0.53565061     0.38000
C1899       C  0.23740951  0.94609004  0.49491063     0.36400
C1900       C  0.17066121  0.53811434  0.53448799     0.36400
N1901       N  0.24900467  0.92622708  0.48666778    -0.38400
N1902       N  0.15710281  0.55684732  0.54257917    -0.38400
N1903       N  0.25183844  0.92814262  0.54380329    -0.37900
N1904       N  0.15669922  0.55579130  0.48538478    -0.37900
C1905       C  0.55133382  0.74857962  0.49575639    -0.04600
C1906       C  0.53500621  0.72615625  0.50618886    -0.01700
C1907       C  0.53420107  0.72711517  0.52643093     0.03300
C1908       C  0.54968386  0.75052970  0.53657633    -0.04600
C1909       C  0.06578837  0.77239592  0.52625912    -0.01700
C1910       C  0.06617624  0.77167511  0.50596307     0.03300
C1911       C  0.51927132  0.70173309  0.49608610     0.38000
C1912       C  0.08157071  0.79671229  0.53635709     0.38000
C1913       C  0.08110360  0.79606666  0.49549506     0.36400
C1914       C  0.51799953  0.70341410  0.53686458     0.36400
N1915       N  0.09257944  0.81577590  0.48711272    -0.38400
N1916       N  0.50518590  0.68444238  0.54517820    -0.38400
N1917       N  0.09418493  0.81621436  0.54432614    -0.37900
N1918       N  0.50673699  0.68226805  0.48801376    -0.37900
C1919       C  0.54890421  0.84202869  0.43853718    -0.04600
C1920       C  0.06188648  0.85822092  0.42374251    -0.01700
C1921       C  0.06144682  0.89058329  0.42372526     0.03300
C1922       C  0.54830776  0.90714291  0.43857452    -0.04600
C1923       C  0.53384938  0.89067005  0.45343560    -0.01700
C1924       C  0.53417011  0.85831527  0.45342871     0.03300
C1925       C  0.07733567  0.84194074  0.40840806     0.38000
C1926       C  0.51949966  0.90705360  0.46913860     0.38000
C1927       C  0.52051822  0.84179024  0.46927350     0.36400
C1928       C  0.07565666  0.90713304  0.40807662     0.36400
N1929       N  0.50983671  0.82859713  0.48197095    -0.38400
N1930       N  0.08680612  0.92029309  0.39552199    -0.38400
N1931       N  0.50815088  0.92020131  0.48166202    -0.37900
N1932       N  0.08970677  0.82898249  0.39618902    -0.37900
C1933       C  0.54390528  0.59204026  0.43745004    -0.04600
C1934       C  0.56101846  0.60836883  0.45125203    -0.01700
C1935       C  0.56149604  0.64066349  0.45111629     0.03300
C1936       C  0.54438339  0.65704258  0.43738909    -0.04600
C1937       C  0.02659163  0.64046884  0.42390878    -0.01700
C1938       C  0.02634360  0.60811255  0.42393036     0.03300
C1939       C  0.57671999  0.59196976  0.46634677     0.38000
C1940       C  0.00927556  0.65697428  0.40953714     0.38000
C1941       C  0.00856505  0.59169088  0.40969139     0.36400
C1942       C  0.57868223  0.65707843  0.46564206     0.36400
N1943       N  0.99439265  0.57860101  0.39833103    -0.38400
N1944       N  0.59226160  0.67026703  0.47723301    -0.38400
N1945       N  0.99553112  0.67011773  0.39803570    -0.37900
N1946       N  0.58883624  0.57893354  0.47857043    -0.37900
C1947       C  0.55172735  0.50227089  0.53677324    -0.04600
C1948       C  0.52912245  0.02181081  0.52676540    -0.01700
C1949       C  0.53035539  0.02233234  0.50652030     0.03300
C1950       C  0.55204446  0.50247310  0.49584945    -0.04600
C1951       C  0.06784717  0.47952611  0.50612064    -0.01700
C1952       C  0.06804039  0.47962499  0.52643540     0.03300
C1953       C  0.50921401  0.04311228  0.53675717     0.38000
C1954       C  0.08359660  0.45543168  0.49580617     0.38000
C1955       C  0.08547648  0.45669023  0.53663957     0.36400
C1956       C  0.51228892  0.04464998  0.49611512     0.36400
N1957       N  0.09957677  0.43832108  0.54462165    -0.38400
N1958       N  0.49801058  0.06251379  0.48779465    -0.38400
N1959       N  0.09578251  0.43598100  0.48753665    -0.37900
N1960       N  0.49332935  0.06008887  0.54471992    -0.37900
C1961       C  0.23668784  0.75169105  0.28430677    -0.04600
C1962       C  0.21238088  0.74580133  0.27125282    -0.01700
C1963       C  0.21661064  0.74980463  0.25131058     0.03300
C1964       C  0.24451478  0.76120024  0.24403640    -0.04600
C1965       C  0.26877148  0.76707002  0.25676823    -0.01700
C1966       C  0.26537488  0.76132981  0.27661377     0.03300
C1967       C  0.18299620  0.73472856  0.27801967     0.38000
C1968       C  0.29764287  0.77839913  0.24930854     0.38000
C1969       C  0.29200044  0.76487263  0.28878712     0.36400
C1970       C  0.19198694  0.74219520  0.23819620     0.36400
N1971       N  0.31357939  0.76727445  0.29827072    -0.38400
N1972       N  0.17236157  0.73578876  0.22782305    -0.38400
N1973       N  0.32059611  0.78754402  0.24333978    -0.37900
N1974       N  0.15945533  0.72592487  0.28325987    -0.37900
C1975       C  0.22566151  0.90311382  0.34495243    -0.04600
C1976       C  0.20564334  0.88642158  0.35695850    -0.01700
C1977       C  0.20623334  0.85403200  0.35696908     0.03300
C1978       C  0.22678274  0.83794166  0.34493057    -0.04600
C1979       C  0.24753893  0.85473053  0.33349464    -0.01700
C1980       C  0.24689414  0.88704246  0.33343552     0.03300
C1981       C  0.18522717  0.90252798  0.36990144     0.38000
C1982       C  0.26915113  0.83897951  0.32122716     0.38000
C1983       C  0.26745984  0.90369930  0.32087088     0.36400
C1984       C  0.18659178  0.83731395  0.37004704     0.36400
N1985       N  0.28385361  0.91696443  0.31085997    -0.38400
N1986       N  0.17109545  0.82399994  0.38057846    -0.38400
N1987       N  0.28673957  0.82700734  0.31137754    -0.37900
N1988       N  0.16903554  0.91531822  0.38030672    -0.37900
C1989       C  0.22089335  0.58777211  0.34065061    -0.04600
C1990       C  0.21322875  0.60402270  0.32388002    -0.01700
C1991       C  0.21372347  0.63644211  0.32381736     0.03300
C1992       C  0.22171805  0.65282574  0.34056281    -0.04600
C1993       C  0.22925127  0.63648407  0.35733933    -0.01700
C1994       C  0.22894146  0.60414792  0.35736183     0.03300
C1995       C  0.20626887  0.58732273  0.30645215     0.38000
C1996       C  0.23699866  0.65298336  0.37471302     0.38000
C1997       C  0.23674290  0.58765322  0.37468478     0.36400
C1998       C  0.20759995  0.65286499  0.30623841     0.36400
N1999       N  0.24305187  0.57445721  0.38846571    -0.38400
N2000       N  0.20300178  0.66580143  0.29210507    -0.38400
N2001       N  0.24320830  0.66614303  0.38856278    -0.37900
N2002       N  0.20089744  0.57391622  0.29255355    -0.37900
C2003       C  0.23398862  0.48914896  0.28440263    -0.04600
C2004       C  0.25608003  0.50663270  0.27436214    -0.01700
C2005       C  0.25967102  0.50325228  0.25432681     0.03300
C2006       C  0.24085185  0.48279573  0.24391910    -0.04600
C2007       C  0.21877971  0.96836376  0.25459092    -0.01700
C2008       C  0.21464801  0.97122342  0.27460540     0.03300
C2009       C  0.27460695  0.52894881  0.28449308     0.38000
C2010       C  0.19788066  0.94943739  0.24357534     0.38000
C2011       C  0.19115343  0.95312527  0.28394600     0.36400
C2012       C  0.28337428  0.52038286  0.24450175     0.36400
N2013       N  0.17242206  0.93862387  0.29134966    -0.38400
N2014       N  0.30231220  0.53397612  0.23664622    -0.38400
N2015       N  0.18114859  0.93447802  0.23476332    -0.37900
N2016       N  0.28931815  0.54682770  0.29255689    -0.37900
C2017       C  0.51861526  0.75503814  0.28634466    -0.04600
C2018       C  0.49662276  0.77619224  0.27938354    -0.01700
C2019       C  0.49195272  0.78000709  0.25945955     0.03300
C2020       C  0.50984181  0.76355599  0.24608248    -0.04600
C2021       C  0.03296286  0.74196658  0.25277280    -0.01700
C2022       C  0.03704892  0.73786748  0.27274678     0.03300
C2023       C  0.47947907  0.79515013  0.29267013     0.38000
C2024       C  0.05368594  0.72695339  0.23950765     0.38000
C2025       C  0.05993835  0.71641907  0.27949707     0.36400
C2026       C  0.46799753  0.80031681  0.25275748     0.36400
N2027       N  0.07812867  0.69919740  0.28484382    -0.38400
N2028       N  0.44877927  0.81637385  0.24740070    -0.38400
N2029       N  0.07032125  0.71514590  0.22892425    -0.37900
N2030       N  0.46591836  0.81040752  0.30324676    -0.37900
C2031       C  0.53457757  0.84095437  0.34484123    -0.04600
C2032       C  0.04840422  0.85721011  0.32969033    -0.01700
C2033       C  0.04941593  0.88953219  0.33016378     0.03300
C2034       C  0.53535854  0.90587745  0.34522464    -0.04600
C2035       C  0.52267330  0.88951720  0.36075333    -0.01700
C2036       C  0.52253329  0.85720860  0.36063709     0.03300
C2037       C  0.06043539  0.84089079  0.31320898     0.38000
C2038       C  0.51074273  0.90591658  0.37722591     0.38000
C2039       C  0.51088822  0.84067056  0.37709190     0.36400
C2040       C  0.06410904  0.90600908  0.31466335     0.36400
N2041       N  0.50176700  0.82746533  0.39025205    -0.38400
N2042       N  0.07586676  0.91911690  0.30230201    -0.38400
N2043       N  0.50133226  0.91899531  0.39038702    -0.37900
N2044       N  0.06978696  0.82786034  0.30001077    -0.37900
C2045       C  0.52720765  0.59082791  0.34407692    -0.04600
C2046       C  0.50768633  0.60741836  0.33174143    -0.01700
C2047       C  0.50839136  0.63981197  0.33155955     0.03300
C2048       C  0.52822380  0.65603540  0.34394659    -0.04600
C2049       C  0.04699468  0.63928283  0.35649495    -0.01700
C2050       C  0.04660645  0.60691004  0.35648444     0.03300
C2051       C  0.48752280  0.59117583  0.31873547     0.38000
C2052       C  0.06639376  0.65550740  0.36998472     0.38000
C2053       C  0.06591450  0.59033798  0.36981184     0.36400
C2054       C  0.48956362  0.65643268  0.31801896     0.36400
N2055       N  0.08123823  0.57715725  0.38048911    -0.38400
N2056       N  0.47466590  0.66974835  0.30717707    -0.38400
N2057       N  0.08172355  0.66839385  0.38083743    -0.37900
N2058       N  0.47143306  0.57820823  0.30836403    -0.37900
C2059       C  0.50512691  0.48732938  0.24595930    -0.04600
C2060       C  0.01429626  0.51564195  0.25414042    -0.01700
C2061       C  0.02070584  0.51806624  0.27400758     0.03300
C2062       C  0.51600812  0.49315440  0.28637728    -0.04600
C2063       C  0.50609535  0.96573409  0.27929328    -0.01700
C2064       C  0.50147590  0.96265416  0.25930307     0.03300
C2065       C  0.01690237  0.54296656  0.24251628     0.38000
C2066       C  0.49837843  0.94054119  0.29192099     0.38000
C2067       C  0.49077437  0.93345700  0.25197426     0.36400
C2068       C  0.03190451  0.54669760  0.28190889     0.36400
N2069       N  0.48250321  0.90995028  0.24631796    -0.38400
N2070       N  0.04097211  0.56950026  0.28817352    -0.38400
N2071       N  0.49181717  0.92048684  0.30190424    -0.37900
N2072       N  0.01865131  0.56503871  0.23345144    -0.37900
C2073       C  0.40358656  0.76945052  0.84375600    -0.04600
C2074       C  0.38718131  0.74244619  0.83893630    -0.01700
C2075       C  0.35476744  0.74230143  0.83871171     0.03300
C2076       C  0.33798464  0.76912955  0.84331971    -0.04600
C2077       C  0.35439886  0.79560363  0.84912376    -0.01700
C2078       C  0.38673945  0.79571061  0.84942574     0.03300
C2079       C  0.40332375  0.71443456  0.83410001     0.38000
C2080       C  0.33824127  0.82277652  0.85561410     0.38000
C2081       C  0.40241993  0.82278492  0.85652012     0.36400
C2082       C  0.33897929  0.71426199  0.83347290     0.36400
N2083       N  0.41475985  0.84438578  0.86224351    -0.38400
N2084       N  0.32662573  0.69173322  0.82940218    -0.38400
N2085       N  0.32555205  0.84451962  0.86079777    -0.37900
N2086       N  0.41590532  0.69186074  0.83043655    -0.37900
C2087       C  0.08829089  0.77595904  0.84372360    -0.04600
C2088       C  0.10486950  0.79376254  0.85705706    -0.01700
C2089       C  0.13717740  0.79322973  0.85695651     0.03300
C2090       C  0.15302750  0.77447116  0.84373463    -0.04600
C2091       C  0.13637894  0.75704530  0.83023581    -0.01700
C2092       C  0.10416974  0.75820485  0.83003281     0.03300
C2093       C  0.08874028  0.81168674  0.87137076     0.38000
C2094       C  0.15236229  0.73849243  0.81616646     0.38000
C2095       C  0.08737440  0.74207161  0.81518687     0.36400
C2096       C  0.15402371  0.81105924  0.87099057     0.36400
N2097       N  0.07399090  0.72944267  0.80326510    -0.38400
N2098       N  0.16741598  0.82529096  0.88218502    -0.38400
N2099       N  0.16508296  0.72365518  0.80496439    -0.37900
N2100       N  0.07592135  0.82592094  0.88283407    -0.37900
C2101       C  0.40616626  0.98030177  0.84359840    -0.04600
C2102       C  0.39019408  0.96594715  0.82844884    -0.01700
C2103       C  0.35784677  0.96576540  0.82817771     0.03300
C2104       C  0.34107762  0.97991125  0.84305670    -0.04600
C2105       C  0.35339746  0.48621842  0.85751878    -0.01700
C2106       C  0.38575961  0.48675984  0.85761695     0.03300
C2107       C  0.40707398  0.95222850  0.81273808     0.38000
C2108       C  0.33661936  0.49761317  0.87398418     0.38000
C2109       C  0.40189737  0.49894656  0.87409900     0.36400
C2110       C  0.34179587  0.95195288  0.81217535     0.36400
N2111       N  0.41477061  0.50860556  0.88726040    -0.38400
N2112       N  0.32891396  0.94104191  0.79940624    -0.38400
N2113       N  0.32324367  0.50655353  0.88715475    -0.37900
N2114       N  0.42061421  0.94136761  0.80021344    -0.37900
C2115       C  0.09110018  0.97874852  0.84460344    -0.04600
C2116       C  0.10728824  0.95901953  0.85702027    -0.01700
C2117       C  0.13963744  0.95842762  0.85679700     0.03300
C2118       C  0.15610036  0.97759225  0.84415716    -0.04600
C2119       C  0.13600497  0.48928401  0.83016715    -0.01700
C2120       C  0.10369390  0.48954553  0.83033539     0.03300
C2121       C  0.09071585  0.94010634  0.87057706     0.38000
C2122       C  0.15240745  0.50591047  0.81540883     0.38000
C2123       C  0.08717650  0.50622335  0.81567340     0.36400
C2124       C  0.15592938  0.93876039  0.87003188     0.36400
N2125       N  0.07396736  0.51938037  0.80393370    -0.38400
N2126       N  0.16887828  0.92304250  0.88059618    -0.38400
N2127       N  0.16551026  0.51907149  0.80361756    -0.37900
N2128       N  0.07751533  0.92507330  0.88141254    -0.37900
C2129       C  0.22872268  0.75451059  0.74513835    -0.04600
C2130       C  0.25451382  0.74155546  0.75448835    -0.01700
C2131       C  0.25916138  0.74593290  0.77435968     0.03300
C2132       C  0.23815744  0.76310802  0.78533477    -0.04600
C2133       C  0.21253253  0.77625062  0.77612933    -0.01700
C2134       C  0.20772220  0.77188671  0.75624518     0.03300
C2135       C  0.27623132  0.72301835  0.74385578     0.38000
C2136       C  0.19066014  0.79394429  0.78721025     0.38000
C2137       C  0.18139245  0.78609471  0.74727806     0.36400
C2138       C  0.28640550  0.73370714  0.78338794     0.36400
N2139       N  0.16029419  0.79741589  0.74022179    -0.38400
N2140       N  0.30832602  0.72413875  0.79045957    -0.38400
N2141       N  0.17323055  0.80808616  0.79602703    -0.37900
N2142       N  0.29363974  0.70826528  0.73542447    -0.37900
C2143       C  0.22077555  0.90576974  0.68700757    -0.04600
C2144       C  0.20273797  0.88992441  0.67342042    -0.01700
C2145       C  0.20207730  0.85761627  0.67330443     0.03300
C2146       C  0.21944602  0.84094683  0.68676714    -0.04600
C2147       C  0.23683324  0.85680827  0.70065619    -0.01700
C2148       C  0.23749715  0.88910098  0.70077308     0.03300
C2149       C  0.18540801  0.90682808  0.65923012     0.38000
C2150       C  0.25284774  0.83990463  0.71543788     0.38000
C2151       C  0.25415512  0.90521322  0.71567250     0.36400
C2152       C  0.18408620  0.84153954  0.65901346     0.36400
N2153       N  0.26723686  0.91811867  0.72761234    -0.38400
N2154       N  0.16978917  0.82873569  0.64758637    -0.38400
N2155       N  0.26542430  0.82640358  0.72729282    -0.37900
N2156       N  0.17164079  0.92028178  0.64788005    -0.37900
C2157       C  0.21866075  0.65599230  0.68758657    -0.04600
C2158       C  0.19971834  0.63926079  0.70024505    -0.01700
C2159       C  0.19978978  0.60687198  0.69995098     0.03300
C2160       C  0.21926476  0.59069603  0.68724640    -0.04600
C2161       C  0.23753804  0.60746534  0.67422362    -0.01700
C2162       C  0.23711442  0.63982983  0.67432755     0.03300
C2163       C  0.18073273  0.65527687  0.71406499     0.38000
C2164       C  0.25569621  0.59148926  0.65996295     0.38000
C2165       C  0.25463424  0.65645037  0.66007437     0.36400
C2166       C  0.18007369  0.59030733  0.71305819     0.36400
N2167       N  0.26845754  0.66972031  0.64865320    -0.38400
N2168       N  0.16415061  0.57715713  0.72341956    -0.38400
N2169       N  0.27008980  0.57880903  0.64852383    -0.37900
N2170       N  0.16559184  0.66800709  0.72510011    -0.37900
C2171       C  0.23065272  0.49159510  0.74468786    -0.04600
C2172       C  0.21413752  0.97282875  0.75616009    -0.01700
C2173       C  0.21874038  0.96934454  0.77610191     0.03300
C2174       C  0.24179203  0.98623131  0.78568596    -0.04600
C2175       C  0.25895005  0.50128535  0.77462707    -0.01700
C2176       C  0.25495677  0.50604331  0.75472343     0.03300
C2177       C  0.19139231  0.95407357  0.74657898     0.38000
C2178       C  0.28441683  0.51568352  0.78448174     0.38000
C2179       C  0.27578242  0.52635575  0.74473480     0.36400
C2180       C  0.19903493  0.94887102  0.78684462     0.36400
N2181       N  0.29252208  0.54249633  0.73681637    -0.38400
N2182       N  0.18331414  0.93258416  0.79543220    -0.38400
N2183       N  0.30474859  0.52704432  0.79238067    -0.37900
N2184       N  0.17331735  0.93901404  0.73895209    -0.37900
C2185       C  0.51359194  0.75918678  0.74543467    -0.04600
C2186       C  0.49459194  0.73826582  0.75525842    -0.01700
C2187       C  0.48923316  0.74156346  0.77513061     0.03300
C2188       C  0.50356813  0.76532555  0.78565562    -0.04600
C2189       C  0.02307578  0.78566400  0.77620870    -0.01700
C2190       C  0.02768248  0.78283632  0.75622039     0.03300
C2191       C  0.48134749  0.71254733  0.74501784     0.38000
C2192       C  0.03955357  0.80921516  0.78665223     0.38000
C2193       C  0.04649621  0.80512462  0.74629011     0.36400
C2194       C  0.46806650  0.72091730  0.78452727     0.36400
N2195       N  0.06140269  0.82295647  0.73836001    -0.38400
N2196       N  0.45102350  0.70444372  0.79189274    -0.38400
N2197       N  0.05279662  0.82794742  0.79495789    -0.37900
N2198       N  0.47101855  0.69193807  0.73683572    -0.37900
C2199       C  0.52304294  0.91113572  0.68714262    -0.04600
C2200       C  0.50328345  0.89449426  0.69931883    -0.01700
C2201       C  0.50280372  0.86216948  0.69871616     0.03300
C2202       C  0.52258806  0.84604559  0.68622426    -0.04600
C2203       C  0.04196067  0.86265317  0.67423117    -0.01700
C2204       C  0.04217215  0.89501934  0.67465378     0.03300
C2205       C  0.48440401  0.91056888  0.71317600     0.38000
C2206       C  0.06076809  0.84652758  0.66036460     0.38000
C2207       C  0.06154466  0.91173617  0.66142523     0.36400
C2208       C  0.48244072  0.84552658  0.71138821     0.36400
N2209       N  0.07698961  0.92504641  0.65085849    -0.38400
N2210       N  0.46607590  0.83224400  0.72141315    -0.38400
N2211       N  0.07563935  0.83373396  0.64921983    -0.37900
N2212       N  0.46950500  0.92339461  0.72429093    -0.37900
C2213       C  0.52518552  0.59595685  0.68968928    -0.04600
C2214       C  0.51394838  0.61236491  0.67376524    -0.01700
C2215       C  0.51451445  0.64468715  0.67367024     0.03300
C2216       C  0.52651362  0.66104652  0.68944054    -0.04600
C2217       C  0.03759401  0.64466695  0.70557447    -0.01700
C2218       C  0.03679711  0.61226261  0.70571196     0.03300
C2219       C  0.50280253  0.59591425  0.65712136     0.38000
C2220       C  0.04925240  0.66118626  0.72205192     0.38000
C2221       C  0.04686574  0.59570294  0.72252951     0.36400
C2222       C  0.50378372  0.66117971  0.65697553     0.36400
N2223       N  0.05470880  0.58242319  0.73596802    -0.38400
N2224       N  0.49537973  0.67456564  0.64371936    -0.38400
N2225       N  0.05857728  0.67442209  0.73517235    -0.37900
N2226       N  0.49406364  0.58261021  0.64388016    -0.37900
C2227       C  0.50386159  0.98872804  0.78662246    -0.04600
C2228       C  0.48602316  0.50893269  0.77612748    -0.01700
C2229       C  0.49078352  0.51418878  0.75633188     0.03300
C2230       C  0.51286808  0.99722271  0.74646725    -0.04600
C2231       C  0.02723306  0.97381929  0.75620171    -0.01700
C2232       C  0.02295356  0.96963392  0.77609299     0.03300
C2233       C  0.46513237  0.52860245  0.78660441     0.38000
C2234       C  0.04720642  0.95314529  0.74574868     0.38000
C2235       C  0.03944471  0.94530773  0.78572970     0.36400
C2236       C  0.47671297  0.54046144  0.74722700     0.36400
N2237       N  0.05249589  0.92579042  0.79336002    -0.38400
N2238       N  0.46561975  0.56150133  0.73997937    -0.38400
N2239       N  0.06317450  0.93670527  0.73742177    -0.37900
N2240       N  0.44840012  0.54423969  0.79494993    -0.37900
O2241       O  0.99286981  0.00351785  0.71426405    -0.71000
O2242       O  0.00339961  0.50459890  0.65924290    -0.71200
O2243       O  0.99650770  0.46076144  0.68585488    -0.71100
O2244       O  0.99786162  0.04714534  0.68705275    -0.71100
O2245       O  0.54843053  0.04694883  0.69259952    -0.71000
O2246       O  0.54594573  0.45923108  0.68816959    -0.71100
O2247       O  0.55322526  0.00594946  0.66362462    -0.71000
O2248       O  0.54114856  0.49913484  0.71721339    -0.71200
V2249       V  0.99874955  0.50423051  0.68638795     1.35200
V2250       V  0.54602865  0.50263522  0.69015793     1.35200
C2251       C  0.51458418  0.49962554  0.72448052     0.78200
C2252       C  0.53018358  0.00484057  0.65265988     0.78300
C2253       C  0.02087880  0.44518937  0.68667247     0.78200
C2254       C  0.02227645  0.06203838  0.68990486     0.78100
O2255       O  0.54086046  0.25824717  0.71758887    -0.71000
O2256       O  0.55161832  0.25075712  0.66363404    -0.71200
O2257       O  0.54543362  0.29764828  0.68833889    -0.71100
O2258       O  0.54695266  0.21077390  0.69291277    -0.71100
O2259       O  0.99649066  0.20963605  0.68719962    -0.71000
O2260       O  0.99518153  0.29665775  0.68606086    -0.71100
O2261       O  0.00123159  0.25218577  0.65963830    -0.71000
O2262       O  0.99054168  0.25440989  0.71383016    -0.71200
V2263       V  0.54526909  0.25424324  0.69056030     1.35200
V2264       V  0.99680042  0.25318026  0.68677413     1.35200
C2265       C  0.01335385  0.25768319  0.72482642     0.78200
C2266       C  0.02772750  0.25091830  0.65234275     0.78300
C2267       C  0.01975239  0.31193438  0.68674555     0.78200
C2268       C  0.02116358  0.19527066  0.69013113     0.78100
O2269       O  0.74974819  0.49715559  0.71241794    -0.71000
O2270       O  0.74277373  0.99728958  0.65888127    -0.71200
O2271       O  0.74731194  0.04118326  0.68589633    -0.71100
O2272       O  0.74629402  0.45445141  0.68502852    -0.71100
O2273       O  0.69670692  0.45371636  0.68736686    -0.71000
O2274       O  0.69804116  0.04140772  0.68983310    -0.71100
O2275       O  0.69217588  0.49797669  0.66086279    -0.71000
O2276       O  0.70227052  0.99653292  0.71629658    -0.71200
V2277       V  0.74609176  0.99751962  0.68601172     1.35200
V2278       V  0.69859994  0.99790055  0.68900480     1.35200
C2279       C  0.72859570  0.99626222  0.72395654     0.78200
C2280       C  0.71668694  0.99784259  0.65107273     0.78300
C2281       C  0.72273833  0.05620958  0.68798674     0.78200
C2282       C  0.72167803  0.43929869  0.68617876     0.78100
O2283       O  0.75169823  0.24915659  0.71438011    -0.71000
O2284       O  0.74355348  0.24806913  0.66014349    -0.71200
O2285       O  0.74711810  0.29203449  0.68716863    -0.71100
O2286       O  0.74774852  0.20486997  0.68732625    -0.71100
O2287       O  0.69848532  0.20469784  0.69133243    -0.71000
O2288       O  0.69746077  0.29158047  0.68883348    -0.71100
O2289       O  0.69407184  0.24616691  0.66281459    -0.71000
O2290       O  0.70232096  0.25076018  0.71741864    -0.71200
V2291       V  0.74654387  0.24847763  0.68731572     1.35200
V2292       V  0.69902275  0.24821133  0.69007325     1.35200
C2293       C  0.72856351  0.25119569  0.72520731     0.78200
C2294       C  0.71758945  0.24684812  0.65218078     0.78300
C2295       C  0.72211320  0.30659874  0.68782095     0.78200
C2296       C  0.72315543  0.18987822  0.68931679     0.78100
O2297       O  0.49717806  0.45380578  0.81452455    -0.71000
O2298       O  0.99270646  0.44484403  0.86891542    -0.71200
O2299       O  0.95124384  0.44993539  0.84032025    -0.71100
O2300       O  0.53823962  0.44833507  0.84309771    -0.71100
O2301       O  0.54243044  0.00414054  0.84595467    -0.71000
O2302       O  0.95553155  0.00620319  0.84585967    -0.71100
O2303       O  0.49864176  0.00042540  0.87298262    -0.71000
O2304       O  0.99946902  0.00937606  0.81865579    -0.71200
V2305       V  0.99475993  0.45026227  0.84176569     1.35200
V2306       V  0.99911744  0.00441989  0.84574030     1.35200
C2307       C  0.99759908  0.48031072  0.80688712     0.78200
C2308       C  0.99359298  0.46813850  0.87973556     0.78300
C2309       C  0.93656620  0.47468156  0.84232453     0.78200
C2310       C  0.55335160  0.47293475  0.84431003     0.78100
O2311       O  0.50200079  0.24994006  0.81875584    -0.71000
O2312       O  0.00332948  0.25784354  0.87294780    -0.71200
O2313       O  0.95911899  0.25137547  0.84675083    -0.71100
O2314       O  0.54585424  0.25664241  0.84522826    -0.71100
O2315       O  0.54300571  0.30593647  0.84247444    -0.71000
O2316       O  0.95629045  0.30054697  0.84359642    -0.71100
O2317       O  0.50007029  0.30742606  0.87047330    -0.71000
O2318       O  0.99918833  0.29896366  0.81576355    -0.71200
V2319       V  0.00247151  0.25479318  0.84575199     1.35200
V2320       V  0.99967747  0.30217377  0.84304192     1.35200
C2321       C  0.00095178  0.27290449  0.80782866     0.78200
C2322       C  0.00167229  0.28381462  0.88092219     0.78300
C2323       C  0.94275212  0.27519190  0.84574896     0.78200
C2324       C  0.55930879  0.28208186  0.84325128     0.78100
O2325       O  0.74188796  0.45204365  0.81378111    -0.71000
O2326       O  0.74752041  0.44404576  0.86813062    -0.71200
O2327       O  0.70144508  0.44736963  0.84271047    -0.71100
O2328       O  0.78853315  0.44861568  0.83926632    -0.71100
O2329       O  0.79167572  0.00568856  0.84452209    -0.71000
O2330       O  0.70466679  0.00387802  0.84454589    -0.71100
O2331       O  0.74836532  0.00121637  0.87160615    -0.71000
O2332       O  0.74766208  0.00824195  0.81726246    -0.71200
V2333       V  0.74493095  0.44894273  0.84100712     1.35200
V2334       V  0.74815996  0.00379226  0.84442068     1.35200
C2335       C  0.74201034  0.47819443  0.80596505     0.78200
C2336       C  0.74637022  0.46749649  0.87878653     0.78300
C2337       C  0.68643373  0.47208626  0.84353381     0.78200
C2338       C  0.80322209  0.47335255  0.84150701     0.78100
O2339       O  0.74926312  0.24739930  0.81878973    -0.71000
O2340       O  0.74856782  0.25862983  0.87284410    -0.71200
O2341       O  0.70577573  0.25594012  0.84522605    -0.71100
O2342       O  0.79259155  0.25070706  0.84666273    -0.71100
O2343       O  0.79543004  0.29960561  0.84200969    -0.71000
O2344       O  0.70887686  0.30514525  0.84186906    -0.71100
O2345       O  0.75249398  0.30782038  0.86927481    -0.71000
O2346       O  0.75100195  0.29658485  0.81478289    -0.71200
V2347       V  0.74917850  0.25413735  0.84578202     1.35200
V2348       V  0.75203611  0.30135163  0.84205811     1.35200
C2349       C  0.74873797  0.27002634  0.80752055     0.78200
C2350       C  0.75048819  0.28492141  0.88033759     0.78300
C2351       C  0.69248153  0.28143652  0.84306067     0.78200
C2352       C  0.80893955  0.27446621  0.84498290     0.78100
O2353       O  0.55005513  0.99915489  0.31509234    -0.71000
O2354       O  0.55996161  0.49854893  0.36889976    -0.71200
O2355       O  0.55537195  0.45539568  0.34129534    -0.71100
O2356       O  0.55483285  0.04260368  0.34273116    -0.71100
O2357       O  0.00501969  0.04081727  0.34534065    -0.71000
O2358       O  0.00587915  0.45379688  0.34696207    -0.71100
O2359       O  0.01229956  0.99935040  0.37346003    -0.71000
O2360       O  0.99826354  0.49496368  0.31888925    -0.71200
V2361       V  0.55532818  0.99906827  0.34234607     1.35200
V2362       V  0.00784752  0.99722178  0.34647346     1.35200
C2363       C  0.02370327  0.99593309  0.30831447     0.78200
C2364       C  0.03867553  0.99917155  0.38087474     0.78300
C2365       C  0.03081954  0.43969821  0.34427375     0.78200
C2366       C  0.02929453  0.05658992  0.34429353     0.78100
O2367       O  0.00131992  0.25084909  0.31938066    -0.71000
O2368       O  0.01108354  0.24755920  0.37349599    -0.71200
O2369       O  0.00704518  0.29236476  0.34745801    -0.71100
O2370       O  0.00530648  0.20534074  0.34546496    -0.71100
O2371       O  0.55509807  0.20454544  0.34302476    -0.71000
O2372       O  0.55660400  0.29168810  0.34300568    -0.71100
O2373       O  0.56090886  0.24816925  0.37019734    -0.71000
O2374       O  0.55071213  0.24888058  0.31580822    -0.71200
V2375       V  0.00716962  0.24889899  0.34637675     1.35200
V2376       V  0.55488781  0.24820558  0.34306550     1.35200
C2377       C  0.02421123  0.25133787  0.30826389     0.78200
C2378       C  0.03736981  0.24806412  0.38108475     0.78300
C2379       C  0.03186205  0.30680583  0.34523352     0.78200
C2380       C  0.02982132  0.19004643  0.34427816     0.78100
O2381       O  0.75319007  0.99544375  0.31753499    -0.71000
O2382       O  0.74436070  0.49776870  0.37063657    -0.71200
O2383       O  0.75119913  0.45349436  0.34448951    -0.71100
O2384       O  0.74781181  0.03967471  0.34443084    -0.71100
O2385       O  0.69856497  0.03879301  0.34019480    -0.71000
O2386       O  0.70173094  0.45050991  0.34232289    -0.71100
O2387       O  0.69456448  0.99688592  0.36855209    -0.71000
O2388       O  0.70393432  0.49130243  0.31342930    -0.71200
V2389       V  0.74761931  0.99611547  0.34457423     1.35200
V2390       V  0.70015840  0.99515388  0.34147443     1.35200
C2391       C  0.73017441  0.99354282  0.30660439     0.78200
C2392       C  0.71782957  0.99674232  0.37932903     0.78300
C2393       C  0.72731891  0.43719380  0.34404684     0.78200
C2394       C  0.72297295  0.05408704  0.34222326     0.78100
O2395       O  0.75903930  0.24591162  0.31849299    -0.71000
O2396       O  0.74859516  0.24366300  0.37255280    -0.71200
O2397       O  0.75168946  0.20102931  0.34485102    -0.71100
O2398       O  0.75578555  0.28817921  0.34651230    -0.71100
O2399       O  0.70628734  0.29033087  0.34444254    -0.71000
O2400       O  0.70278191  0.20355301  0.33956352    -0.71100
O2401       O  0.69920039  0.24372066  0.36902356    -0.71000
O2402       O  0.71016810  0.25092541  0.31497696    -0.71200
V2403       V  0.75283092  0.24465977  0.34550383     1.35200
V2404       V  0.70554360  0.24698855  0.34203394     1.35200
C2405       C  0.73651990  0.24994522  0.30738703     0.78200
C2406       C  0.72221849  0.24342216  0.38001300     0.78300
C2407       C  0.72651695  0.18742656  0.34197119     0.78200
C2408       C  0.73160759  0.30412292  0.34609805     0.78100
O2409       O  0.02273440  0.00068687  0.46650905    -0.71000
O2410       O  0.01647553  0.49738870  0.41185494    -0.71200
O2411       O  0.02029305  0.45559616  0.44019411    -0.71100
O2412       O  0.02006555  0.04270157  0.43851966    -0.71100
O2413       O  0.56976621  0.04376774  0.43800900    -0.71000
O2414       O  0.57122620  0.45651443  0.43615750    -0.71100
O2415       O  0.56828514  0.00089376  0.41001613    -0.71000
O2416       O  0.57370562  0.49966824  0.46393181    -0.71200
V2417       V  0.02142221  0.99918629  0.43931918     1.35200
V2418       V  0.56976499  0.00023400  0.43747471     1.35200
C2419       C  0.04820692  0.00004374  0.47508180     0.78200
C2420       C  0.04174660  0.99917960  0.40193799     0.78300
C2421       C  0.04508171  0.44090873  0.43828660     0.78200
C2422       C  0.04481722  0.05772347  0.43834660     0.78100
O2423       O  0.02244065  0.24819688  0.46680763    -0.71000
O2424       O  0.01685535  0.25038066  0.41256434    -0.71200
O2425       O  0.01935761  0.20585919  0.43888287    -0.71100
O2426       O  0.02036997  0.29305902  0.44053202    -0.71100
O2427       O  0.57100756  0.29242146  0.43698750    -0.71000
O2428       O  0.56902750  0.20545742  0.43846232    -0.71100
O2429       O  0.56689489  0.24764714  0.41036307    -0.71000
O2430       O  0.57267948  0.25009885  0.46506316    -0.71200
V2431       V  0.02073421  0.24941827  0.43965079     1.35200
V2432       V  0.56897368  0.24894018  0.43775321     1.35200
C2433       C  0.04803080  0.24912367  0.47522019     0.78200
C2434       C  0.04047499  0.24873546  0.40215657     0.78300
C2435       C  0.04413253  0.19087027  0.43861975     0.78200
C2436       C  0.04526305  0.30765154  0.43879921     0.78100
O2437       O  0.68332129  0.99601759  0.46303137    -0.71000
O2438       O  0.68905999  0.49575639  0.40732144    -0.71200
O2439       O  0.68543251  0.45126839  0.43395093    -0.71100
O2440       O  0.68788345  0.03947348  0.43581547    -0.71100
O2441       O  0.73727038  0.03749842  0.43890802    -0.71000
O2442       O  0.73507843  0.45101873  0.43555173    -0.71100
O2443       O  0.73862229  0.99588269  0.41065321    -0.71000
O2444       O  0.73190284  0.49254143  0.46399277    -0.71200
V2445       V  0.68663800  0.49480608  0.43460457     1.35200
V2446       V  0.73423917  0.49450622  0.43681695     1.35200
C2447       C  0.70609582  0.49261891  0.47223080     0.78200
C2448       C  0.71506153  0.49656886  0.39932367     0.78300
C2449       C  0.71020702  0.43630955  0.43445697     0.78200
C2450       C  0.71318111  0.05335059  0.43740136     0.78100
O2451       O  0.73688096  0.24762818  0.46558224    -0.71000
O2452       O  0.74260565  0.24338683  0.41141193    -0.71200
O2453       O  0.73878562  0.28904032  0.43702547    -0.71100
O2454       O  0.74025966  0.20189606  0.43965230    -0.71100
O2455       O  0.69085566  0.20105427  0.43640975    -0.71000
O2456       O  0.68910302  0.28784033  0.43635940    -0.71100
O2457       O  0.69303086  0.24426412  0.40912499    -0.71000
O2458       O  0.68737990  0.24439661  0.46382641    -0.71200
V2459       V  0.73865541  0.24545770  0.43841582     1.35200
V2460       V  0.69103008  0.24443048  0.43649690     1.35200
C2461       C  0.71130668  0.24633596  0.47402597     0.78200
C2462       C  0.71897093  0.24350244  0.40101391     0.78300
C2463       C  0.71358155  0.30326782  0.43628652     0.78200
C2464       C  0.71576768  0.18661483  0.43797396     0.78100
O2465       O  0.99914327  0.99095235  0.06682062    -0.71000
O2466       O  0.49593019  0.99428316  0.12076462    -0.71200
O2467       O  0.54100467  0.99295227  0.09454508    -0.71100
O2468       O  0.95410793  0.99210121  0.09303152    -0.71100
O2469       O  0.95234215  0.43822931  0.09546884    -0.71000
O2470       O  0.53942989  0.43890556  0.09471321    -0.71100
O2471       O  0.99633890  0.44217595  0.12232796    -0.71000
O2472       O  0.49536677  0.43493715  0.06789984    -0.71200
V2473       V  0.99767862  0.99265108  0.09399800     1.35200
V2474       V  0.99584078  0.43959836  0.09501732     1.35200
C2475       C  0.99964639  0.96531894  0.05835663     0.78200
C2476       C  0.99760051  0.97258191  0.13138207     0.78300
C2477       C  0.55677075  0.96868803  0.09496336     0.78200
C2478       C  0.94000756  0.96686497  0.09421251     0.78100
O2479       O  0.00218652  0.31838132  0.06898981    -0.71000
O2480       O  0.50138755  0.31378646  0.12384219    -0.71200
O2481       O  0.54530341  0.31753097  0.09668373    -0.71100
O2482       O  0.95842563  0.31504966  0.09610819    -0.71100
O2483       O  0.95950693  0.26534729  0.09557003    -0.71000
O2484       O  0.54670730  0.26809379  0.09372024    -0.71100
O2485       O  0.00446842  0.26401905  0.12165990    -0.71000
O2486       O  0.50137226  0.26868875  0.06759377    -0.71200
V2487       V  0.00188978  0.31513754  0.09633475     1.35200
V2488       V  0.00301575  0.26748966  0.09459685     1.35200
C2489       C  0.00129118  0.29423396  0.05889824     0.78200
C2490       C  0.00294646  0.28773998  0.13199647     0.78300
C2491       C  0.56089774  0.29330483  0.09500227     0.78200
C2492       C  0.94414665  0.28988247  0.09587228     0.78100
O2493       O  0.74763301  0.99055852  0.06546622    -0.71000
O2494       O  0.75091355  0.99575133  0.11964537    -0.71200
O2495       O  0.79279031  0.99136687  0.09151016    -0.71100
O2496       O  0.70564300  0.99464193  0.09356444    -0.71100
O2497       O  0.70196897  0.43790466  0.09351649    -0.71000
O2498       O  0.78906568  0.43678871  0.09361559    -0.71100
O2499       O  0.74571200  0.44045494  0.12074989    -0.71000
O2500       O  0.74553468  0.43436406  0.06629529    -0.71200
V2501       V  0.74922100  0.99210356  0.09258078     1.35200
V2502       V  0.74555543  0.43831149  0.09349566     1.35200
C2503       C  0.74724698  0.96499365  0.05696056     0.78200
C2504       C  0.74978053  0.97194749  0.12984770     0.78300
C2505       C  0.80678619  0.96608650  0.09279996     0.78200
C2506       C  0.69000813  0.97025420  0.09393868     0.78100
O2507       O  0.75263979  0.31916998  0.06851867    -0.71000
O2508       O  0.75461023  0.31367037  0.12317901    -0.71200
O2509       O  0.79702464  0.31531124  0.09525334    -0.71100
O2510       O  0.71006367  0.31775834  0.09641246    -0.71100
O2511       O  0.70865052  0.26837161  0.09314442    -0.71000
O2512       O  0.79572846  0.26561710  0.09454375    -0.71100
O2513       O  0.75138656  0.26418312  0.12092984    -0.71000
O2514       O  0.75344291  0.26956077  0.06666159    -0.71200
V2515       V  0.75354581  0.31554190  0.09580589     1.35200
V2516       V  0.75225391  0.26791684  0.09385827     1.35200
C2517       C  0.75317612  0.29518746  0.05828334     0.78200
C2518       C  0.75349209  0.28781352  0.13132046     0.78300
C2519       C  0.81119039  0.29007673  0.09500069     0.78200
C2520       C  0.69445716  0.29353053  0.09465613     0.78100
O2521       O  0.00148245  0.45734253  0.21645339    -0.71000
O2522       O  0.49551328  0.44814936  0.16224666    -0.71200
O2523       O  0.54165349  0.45368039  0.18731644    -0.71100
O2524       O  0.95470097  0.45152224  0.19113991    -0.71100
O2525       O  0.95636610  0.00508551  0.18800578    -0.71000
O2526       O  0.54318542  0.00367891  0.18679833    -0.71100
O2527       O  0.99915175  0.00107238  0.16045846    -0.71000
O2528       O  0.50062374  0.00750498  0.21446584    -0.71200
V2529       V  0.99818067  0.45355660  0.18924887     1.35200
V2530       V  0.99992628  0.00375943  0.18765882     1.35200
C2531       C  0.00302019  0.98514099  0.22547664     0.78200
C2532       C  0.99784884  0.97510985  0.15244703     0.78300
C2533       C  0.55808230  0.97886826  0.18720925     0.78200
C2534       C  0.94130245  0.98053990  0.18992423     0.78100
O2535       O  0.00883382  0.24785929  0.21442436    -0.71000
O2536       O  0.50278455  0.25872814  0.16067765    -0.71200
O2537       O  0.54889323  0.25536024  0.18585421    -0.71100
O2538       O  0.96189677  0.25148314  0.18916084    -0.71100
O2539       O  0.96033197  0.30104321  0.19137852    -0.71000
O2540       O  0.54733591  0.30431210  0.19124746    -0.71100
O2541       O  0.00345417  0.30773952  0.16408756    -0.71000
O2542       O  0.50467709  0.29731638  0.21862775    -0.71200
V2543       V  0.00546777  0.25413148  0.18754933     1.35200
V2544       V  0.00391834  0.30148100  0.19122014     1.35200
C2545       C  0.00827723  0.27055432  0.22568766     0.78200
C2546       C  0.00297039  0.28468299  0.15306320     0.78300
C2547       C  0.56293069  0.28040553  0.18825099     0.78200
C2548       C  0.94622868  0.27580886  0.19027184     0.78100
O2549       O  0.74359716  0.45354539  0.21460760    -0.71000
O2550       O  0.74811971  0.44558783  0.16037544    -0.71200
O2551       O  0.78975318  0.44837640  0.18891295    -0.71100
O2552       O  0.70260631  0.45087005  0.18591030    -0.71100
O2553       O  0.70565756  0.00335198  0.18577451    -0.71000
O2554       O  0.79260304  0.00399051  0.18647127    -0.71100
O2555       O  0.74963398  0.00028737  0.15896276    -0.71000
O2556       O  0.74823663  0.00693308  0.21332335    -0.71200
V2557       V  0.74614398  0.45053261  0.18742960     1.35200
V2558       V  0.74909967  0.00267087  0.18616618     1.35200
C2559       C  0.74633137  0.98327667  0.22367956     0.78200
C2560       C  0.75034934  0.97437690  0.15085057     0.78300
C2561       C  0.80539286  0.47265433  0.18728356     0.78200
C2562       C  0.68872789  0.47620124  0.18466583     0.78100
O2563       O  0.75045144  0.24761931  0.21360698    -0.71000
O2564       O  0.75511272  0.25830340  0.15975956    -0.71200
O2565       O  0.79678698  0.25099263  0.18797861    -0.71100
O2566       O  0.70968138  0.25535583  0.18536667    -0.71100
O2567       O  0.71182553  0.30422369  0.19096342    -0.71000
O2568       O  0.79879558  0.30054267  0.19014630    -0.71100
O2569       O  0.75475581  0.30768548  0.16340606    -0.71000
O2570       O  0.75536713  0.29665946  0.21778254    -0.71200
V2571       V  0.75316846  0.25402873  0.18676669     1.35200
V2572       V  0.75524113  0.30134914  0.19052331     1.35200
C2573       C  0.75177002  0.27021794  0.22488686     0.78200
C2574       C  0.75458499  0.28466070  0.15234695     0.78300
C2575       C  0.81267941  0.27519420  0.18908583     0.78200
C2576       C  0.69592967  0.28052432  0.18794211     0.78100
O2577       O  0.50084889  0.98812236  0.96647858    -0.71000
O2578       O  0.99788046  0.99641008  0.91211600    -0.71200
O2579       O  0.95568973  0.99321210  0.94012600    -0.71100
O2580       O  0.54265339  0.99198421  0.93829310    -0.71100
O2581       O  0.53843613  0.43607048  0.93619772    -0.71000
O2582       O  0.95145908  0.43708783  0.93635294    -0.71100
O2583       O  0.49465610  0.43932285  0.90902483    -0.71000
O2584       O  0.99504784  0.43411124  0.96361231    -0.71200
V2585       V  0.99925074  0.99249786  0.93918322     1.35200
V2586       V  0.99494403  0.43770226  0.93633981     1.35200
C2587       C  0.00035981  0.96498892  0.97469435     0.78200
C2588       C  0.99375043  0.46533752  0.90080887     0.78300
C2589       C  0.93682854  0.46187649  0.93818740     0.78200
C2590       C  0.55359390  0.46074222  0.93628642     0.78100
O2591       O  0.99831191  0.26697799  0.96671544    -0.71000
O2592       O  0.50118294  0.26240317  0.91238116    -0.71200
O2593       O  0.54341959  0.26394600  0.94034237    -0.71100
O2594       O  0.95627313  0.26556125  0.93852684    -0.71100
O2595       O  0.95736703  0.31526812  0.93826249    -0.71000
O2596       O  0.54414582  0.31340124  0.93779450    -0.71100
O2597       O  0.00044191  0.31193353  0.91053282    -0.71000
O2598       O  0.50146990  0.31641685  0.96541071    -0.64800
V2599       V  0.99982337  0.26564428  0.93944125     1.35200
V2600       V  0.00082331  0.31329584  0.93794590     1.35200
C2601       C  0.99977909  0.29248885  0.97529535     0.78200
C2602       C  0.00117270  0.28624838  0.90208100     0.78300
C2603       C  0.55869341  0.28847433  0.93901897     0.78200
C2604       C  0.94199939  0.29074965  0.93830078     0.78100
O2605       O  0.74596781  0.43407697  0.96262527    -0.71000
O2606       O  0.74557378  0.43916658  0.90807581    -0.71200
O2607       O  0.78921226  0.43717307  0.93523093    -0.71100
O2608       O  0.70216912  0.43590122  0.93552447    -0.71100
O2609       O  0.70572408  0.99344874  0.93724699    -0.71000
O2610       O  0.79292843  0.99388458  0.93877209    -0.71100
O2611       O  0.75041623  0.99655192  0.91087527    -0.71000
O2612       O  0.74816435  0.99104308  0.96505726    -0.71200
V2613       V  0.74571138  0.43752404  0.93539805     1.35200
V2614       V  0.74933736  0.99275577  0.93794316     1.35200
C2615       C  0.74852211  0.96545830  0.97347018     0.78200
C2616       C  0.75000302  0.97275706  0.90057118     0.78300
C2617       C  0.80787072  0.96917131  0.93737686     0.78200
C2618       C  0.69105301  0.96847045  0.93672163     0.78100
O2619       O  0.74964469  0.31872718  0.96458489    -0.71000
O2620       O  0.75090475  0.31379225  0.90980713    -0.71200
O2621       O  0.70677740  0.31538001  0.93700918    -0.71100
O2622       O  0.79382146  0.31722339  0.93762117    -0.71100
O2623       O  0.79465510  0.26751362  0.93809598    -0.71000
O2624       O  0.70772771  0.26596133  0.93974146    -0.71100
O2625       O  0.75003134  0.26421089  0.91177613    -0.71000
O2626       O  0.75253725  0.26919446  0.96613300    -0.71200
V2627       V  0.75029155  0.31535371  0.93727176     1.35200
V2628       V  0.75119777  0.26771550  0.93890667     1.35200
C2629       C  0.75137242  0.29472916  0.97468233     0.78200
C2630       C  0.75046912  0.28798413  0.90147715     0.78300
C2631       C  0.69233241  0.29038917  0.93849611     0.78200
C2632       C  0.80905174  0.29261093  0.93778838     0.78100
O2633       O  0.02127901  0.49863422  0.56579126    -0.71000
O2634       O  0.01002470  0.00207273  0.62076174    -0.71200
O2635       O  0.01263632  0.04339946  0.59215547    -0.71100
O2636       O  0.01825337  0.45704732  0.59434975    -0.71100
O2637       O  0.56796577  0.45959865  0.59801578    -0.71000
O2638       O  0.56209566  0.04606178  0.59550609    -0.71100
O2639       O  0.56089384  0.50488367  0.62356922    -0.71000
O2640       O  0.56847943  0.00113967  0.56945548    -0.71200
V2641       V  0.01558021  0.00008821  0.59374123     1.35200
V2642       V  0.56325567  0.00286295  0.59668266     1.35200
C2643       C  0.04506698  0.99942274  0.55877421     0.78200
C2644       C  0.03311064  0.00405103  0.63160633     0.78300
C2645       C  0.03661568  0.05955411  0.59306993     0.78200
C2646       C  0.04337967  0.44339458  0.59716713     0.78100
O2647       O  0.56902047  0.25191752  0.56970209    -0.71000
O2648       O  0.55920111  0.24944285  0.62408381    -0.71200
O2649       O  0.56204359  0.20754138  0.59594838    -0.71100
O2650       O  0.56628056  0.29390182  0.59823598    -0.71100
O2651       O  0.01638575  0.29656333  0.59446540    -0.71000
O2652       O  0.01229038  0.20964669  0.59215506    -0.71100
O2653       O  0.00898560  0.25188512  0.62036690    -0.71000
O2654       O  0.01900168  0.25408978  0.56634176    -0.71200
V2655       V  0.56319433  0.25076038  0.59688901     1.35200
V2656       V  0.01511383  0.25305363  0.59341058     1.35200
C2657       C  0.04519785  0.25270385  0.55870311     0.78200
C2658       C  0.03186051  0.25049282  0.63139435     0.78300
C2659       C  0.03631837  0.19359477  0.59336793     0.78200
C2660       C  0.04168996  0.31008413  0.59710351     0.78100
O2661       O  0.68226933  0.49548502  0.56618182    -0.71000
O2662       O  0.68841204  0.99589604  0.62164086    -0.71200
O2663       O  0.68641390  0.03974254  0.59469671    -0.71100
O2664       O  0.68590900  0.45181738  0.59319662    -0.71100
O2665       O  0.73561475  0.45305461  0.59289039    -0.71000
O2666       O  0.73585397  0.03930252  0.59158985    -0.71100
O2667       O  0.73699889  0.49868649  0.61880357    -0.71000
O2668       O  0.73321814  0.99396105  0.56538558    -0.71200
V2669       V  0.68696909  0.99620514  0.59426165     1.35200
V2670       V  0.73462787  0.99576848  0.59260830     1.35200
C2671       C  0.70768478  0.99496525  0.55686779     0.78200
C2672       C  0.71412162  0.99710586  0.62997844     0.78300
C2673       C  0.71126451  0.05440291  0.59316302     0.78200
C2674       C  0.71114217  0.43761352  0.59314243     0.78100
O2675       O  0.68675156  0.24487168  0.56759572    -0.71000
O2676       O  0.68991560  0.24750018  0.62238392    -0.71200
O2677       O  0.68832744  0.28979329  0.59408794    -0.71100
O2678       O  0.68806620  0.20277383  0.59571475    -0.71100
O2679       O  0.73757484  0.20254597  0.59301473    -0.71000
O2680       O  0.73805024  0.28972353  0.59454098    -0.71100
O2681       O  0.73951286  0.24515003  0.62100146    -0.71000
O2682       O  0.73635051  0.24727664  0.56656685    -0.71200
V2683       V  0.68920346  0.24625218  0.59494069     1.35200
V2684       V  0.73689763  0.24614402  0.59381622     1.35200
C2685       C  0.71109589  0.24613140  0.55774237     0.78200
C2686       C  0.71540834  0.24640682  0.63101375     0.78300
C2687       C  0.71321386  0.30458732  0.59420178     0.78200
C2688       C  0.71271642  0.18778793  0.59428564     0.78100
C2689       C  0.71204610  0.40358434  0.59330784    -0.04600
C2690       C  0.69840054  0.38668120  0.57831113    -0.01700
C2691       C  0.69897741  0.35434914  0.57855324     0.03300
C2692       C  0.71319488  0.33862724  0.59380138    -0.04600
C2693       C  0.72741765  0.35553263  0.60859174    -0.01700
C2694       C  0.72689361  0.38788054  0.60832555     0.03300
C2695       C  0.68498182  0.40256294  0.56215456     0.38000
C2696       C  0.74194359  0.33963373  0.62436175     0.38000
C2697       C  0.74110623  0.40503153  0.62374118     0.36400
C2698       C  0.68602679  0.33725859  0.56267521     0.36400
N2699       N  0.75241830  0.41876568  0.63602353    -0.38400
N2700       N  0.67577559  0.32365194  0.54998019    -0.38400
N2701       N  0.75348343  0.32692527  0.63694841    -0.37900
N2702       N  0.67441790  0.41518037  0.54920481    -0.37900
C2703       C  0.71239002  0.15365840  0.59401407    -0.04600
C2704       C  0.72902611  0.13736987  0.57992693    -0.01700
C2705       C  0.72879629  0.10501446  0.57969624     0.03300
C2706       C  0.71156826  0.08855011  0.59338729    -0.04600
C2707       C  0.69468853  0.10486531  0.60736760    -0.01700
C2708       C  0.69517117  0.13720463  0.60770999     0.03300
C2709       C  0.74529659  0.15389791  0.56507451     0.38000
C2710       C  0.67767365  0.08841088  0.62192703     0.38000
C2711       C  0.67872646  0.15348950  0.62263546     0.36400
C2712       C  0.74548704  0.08871687  0.56488834     0.36400
N2713       N  0.66565064  0.16645977  0.63455706    -0.38400
N2714       N  0.75880256  0.07570109  0.55309035    -0.38400
N2715       N  0.66412279  0.07530486  0.63354819    -0.37900
N2716       N  0.75811001  0.16711156  0.55317821    -0.37900
C2717       C  0.04343888  0.34417888  0.59895161    -0.04600
C2718       C  0.01825718  0.36095783  0.60625474    -0.01700
C2719       C  0.01886431  0.39324609  0.60649724     0.03300
C2720       C  0.04448269  0.40933906  0.59922017    -0.04600
C2721       C  0.57156337  0.39270618  0.59390397    -0.01700
C2722       C  0.57118659  0.36040028  0.59396327     0.03300
C2723       C  0.99216075  0.34516741  0.61450644     0.38000
C2724       C  0.59968524  0.40835616  0.58876580     0.38000
C2725       C  0.59903653  0.34409636  0.58899359     0.36400
C2726       C  0.99368546  0.40975258  0.61533668     0.36400
N2727       N  0.62144299  0.33124672  0.58532348    -0.38400
N2728       N  0.97374038  0.42284919  0.62254955    -0.38400
N2729       N  0.62230835  0.42068665  0.58495327    -0.37900
N2730       N  0.97139531  0.33268079  0.62119360    -0.37900
C2731       C  0.03563213  0.09382934  0.59161959    -0.04600
C2732       C  0.00814901  0.11031415  0.59501468    -0.01700
C2733       C  0.00811099  0.14267496  0.59512962     0.03300
C2734       C  0.03555426  0.15929153  0.59193126    -0.04600
C2735       C  0.56286055  0.14288278  0.58705433    -0.01700
C2736       C  0.56272813  0.11062796  0.58675772     0.03300
C2737       C  0.97959002  0.09434975  0.59867200     0.38000
C2738       C  0.59087565  0.15869081  0.58172203     0.38000
C2739       C  0.59035673  0.09478740  0.58067282     0.36400
C2740       C  0.97950007  0.15851056  0.59890577     0.36400
N2741       N  0.61243620  0.08236327  0.57583141    -0.38400
N2742       N  0.95656811  0.17089437  0.60186420    -0.38400
N2743       N  0.61334359  0.17105072  0.57754740    -0.37900
N2744       N  0.95668054  0.08184511  0.60154582    -0.37900
C2745       C  0.90797887  0.29157489  0.93804188    -0.04600
C2746       C  0.89178798  0.30911025  0.95173834    -0.01700
C2747       C  0.85946061  0.30986390  0.95149933     0.03300
C2748       C  0.84306165  0.29297573  0.93760788    -0.04600
C2749       C  0.85926107  0.27576442  0.92377191    -0.01700
C2750       C  0.89156086  0.27499389  0.92401819     0.03300
C2751       C  0.90835366  0.32526901  0.96664883     0.38000
C2752       C  0.84270751  0.25971138  0.90880006     0.38000
C2753       C  0.90789855  0.25785683  0.90942631     0.36400
C2754       C  0.84306977  0.32707823  0.96603304     0.36400
N2755       N  0.92088922  0.24420200  0.89776953    -0.38400
N2756       N  0.82997623  0.34073894  0.97764206    -0.38400
N2757       N  0.82949251  0.24703225  0.89682368    -0.37900
N2758       N  0.92162399  0.33796020  0.97859309    -0.37900
C2759       C  0.59289588  0.28830194  0.93869350    -0.04600
C2760       C  0.60972944  0.26829982  0.95061546    -0.01700
C2761       C  0.64209510  0.26908324  0.95064508     0.03300
C2762       C  0.65811115  0.28972063  0.93864876    -0.04600
C2763       C  0.64122159  0.30968368  0.92673146    -0.01700
C2764       C  0.60893352  0.30880875  0.92664796     0.03300
C2765       C  0.59386661  0.24757295  0.96344225     0.38000
C2766       C  0.65695145  0.33102039  0.91425003     0.38000
C2767       C  0.59226090  0.32857590  0.91365038     0.36400
C2768       C  0.65878455  0.24958939  0.96379956     0.36400
N2769       N  0.57876160  0.34433608  0.90340308    -0.38400
N2770       N  0.67207620  0.23412841  0.97434063    -0.38400
N2771       N  0.66954140  0.34825896  0.90447588    -0.37900
N2772       N  0.58127707  0.23099008  0.97366468    -0.37900
C2773       C  0.90687617  0.96837424  0.93829310    -0.04600
C2774       C  0.89029944  0.98125224  0.95369707    -0.01700
C2775       C  0.85795507  0.98171916  0.95334123     0.03300
C2776       C  0.84191427  0.96915308  0.93762312    -0.04600
C2777       C  0.85441762  0.44826536  0.92248871    -0.01700
C2778       C  0.88672471  0.44818961  0.92275613     0.03300
C2779       C  0.90653538  0.99284771  0.97030613     0.38000
C2780       C  0.83830507  0.43471594  0.90641029     0.38000
C2781       C  0.90346589  0.43461123  0.90692772     0.36400
C2782       C  0.84113930  0.99413751  0.96949577     0.36400
N2783       N  0.91681478  0.42382808  0.89429662    -0.38400
N2784       N  0.82768107  0.00395869  0.98238577    -0.38400
N2785       N  0.82546012  0.42397262  0.89356924    -0.37900
N2786       N  0.91956172  0.00189508  0.98357704    -0.37900
C2787       C  0.59183039  0.96753813  0.93723565    -0.04600
C2788       C  0.60786580  0.98618150  0.92407932    -0.01700
C2789       C  0.64022935  0.98623837  0.92376526     0.03300
C2790       C  0.65692727  0.96807756  0.93682151    -0.04600
C2791       C  0.63656468  0.44129069  0.94839769    -0.01700
C2792       C  0.60421576  0.44122655  0.94849163     0.03300
C2793       C  0.59109411  0.00457149  0.91036917     0.38000
C2794       C  0.65308273  0.42298350  0.96227517     0.38000
C2795       C  0.58792918  0.42232698  0.96218821     0.36400
C2796       C  0.65633038  0.00398250  0.90940090     0.36400
N2797       N  0.57488489  0.40727605  0.97308943    -0.38400
N2798       N  0.66919359  0.01795808  0.89787248    -0.38400
N2799       N  0.66627294  0.40851618  0.97339860    -0.37900
N2800       N  0.57774311  0.01925514  0.89943072    -0.37900
C2801       C  0.91205563  0.27496861  0.18979513    -0.04600
C2802       C  0.89588747  0.29251560  0.17614027    -0.01700
C2803       C  0.86352688  0.29212617  0.17573026     0.03300
C2804       C  0.84686773  0.27420301  0.18897361    -0.04600
C2805       C  0.86303312  0.25613242  0.20235468    -0.01700
C2806       C  0.89544453  0.25666157  0.20283541     0.03300
C2807       C  0.91256861  0.31029998  0.16204683     0.38000
C2808       C  0.84631695  0.23773220  0.21608676     0.38000
C2809       C  0.91168270  0.23939727  0.21733367     0.36400
C2810       C  0.84738553  0.30934723  0.16114493     0.36400
N2811       N  0.92469761  0.22578130  0.22894854    -0.38400
N2812       N  0.83454354  0.32292948  0.14943753    -0.38400
N2813       N  0.83297461  0.22305283  0.22704655    -0.37900
N2814       N  0.92583904  0.32439475  0.15075586    -0.37900
C2815       C  0.66190756  0.28209437  0.18748902    -0.04600
C2816       C  0.64552921  0.26856830  0.17221128    -0.01700
C2817       C  0.61320443  0.26844287  0.17230118     0.03300
C2818       C  0.59694149  0.28167061  0.18772757    -0.04600
C2819       C  0.61329802  0.29609978  0.20268915    -0.01700
C2820       C  0.64561639  0.29667565  0.20244209     0.03300
C2821       C  0.66192902  0.25600234  0.15592609     0.38000
C2822       C  0.59692929  0.30923024  0.21881410     0.38000
C2823       C  0.66203656  0.31151902  0.21794461     0.36400
C2824       C  0.59668960  0.25570236  0.15612523     0.36400
N2825       N  0.67509902  0.32340616  0.23029699    -0.38400
N2826       N  0.58354537  0.24569151  0.14317437    -0.38400
N2827       N  0.58384690  0.31958041  0.23169601    -0.37900
N2828       N  0.67501669  0.24617384  0.14288812    -0.37900
C2829       C  0.84184135  0.97984218  0.18874755    -0.04600
C2830       C  0.85857897  0.99795473  0.17562021    -0.01700
C2831       C  0.89094426  0.99823369  0.17603888     0.03300
C2832       C  0.90706884  0.98067921  0.18973752    -0.04600
C2833       C  0.88824030  0.45683940  0.20212353    -0.01700
C2834       C  0.85586480  0.45567663  0.20149913     0.03300
C2835       C  0.84260455  0.01552388  0.16112387     0.38000
C2836       C  0.90439536  0.44079683  0.21718599     0.38000
C2837       C  0.83930709  0.43823383  0.21579602     0.36400
C2838       C  0.90759883  0.01571295  0.16178367     0.36400
N2839       N  0.82610467  0.42425972  0.22717566    -0.38400
N2840       N  0.92084853  0.02961170  0.15038750    -0.38400
N2841       N  0.91715780  0.42799034  0.22925384    -0.37900
N2842       N  0.82992207  0.02956714  0.14956384    -0.37900
C2843       C  0.65700035  0.97848712  0.18618174    -0.04600
C2844       C  0.63781425  0.45963356  0.17118288    -0.01700
C2845       C  0.60546565  0.46040382  0.17141401     0.03300
C2846       C  0.59209937  0.97890984  0.18665854    -0.04600
C2847       C  0.60882908  0.99599725  0.20028449    -0.01700
C2848       C  0.64108417  0.99565316  0.20011946     0.03300
C2849       C  0.65365117  0.44126419  0.15696533     0.38000
C2850       C  0.59303432  0.01317752  0.21501950     0.38000
C2851       C  0.65790916  0.01210038  0.21482333     0.36400
C2852       C  0.58832681  0.44252279  0.15755233     0.36400
N2853       N  0.67128996  0.02511587  0.22658544    -0.38400
N2854       N  0.57469400  0.42839195  0.14641967    -0.38400
N2855       N  0.58105955  0.02706147  0.22696030    -0.37900
N2856       N  0.66625322  0.42681147  0.14551751    -0.37900
C2857       C  0.75246618  0.29622158  0.99608441    -0.04600
C2858       C  0.77553284  0.28027361  0.00618548    -0.01700
C2859       C  0.77610898  0.28056669  0.02642562     0.03300
C2860       C  0.75357211  0.29671206  0.03690284    -0.04600
C2861       C  0.73077276  0.31306611  0.02684264    -0.01700
C2862       C  0.73019328  0.31279492  0.00655533     0.03300
C2863       C  0.79919119  0.26398080  0.99573073     0.38000
C2864       C  0.70692323  0.32887985  0.03739071     0.38000
C2865       C  0.70559372  0.32814651  0.99649845     0.36400
C2866       C  0.80047585  0.26479507  0.03648863     0.36400
N2867       N  0.68584328  0.34020053  0.98847113    -0.38400
N2868       N  0.81994706  0.25230403  0.04452510    -0.38400
N2869       N  0.68786679  0.34133056  0.04587660    -0.37900
N2870       N  0.81802560  0.25099600  0.98736225    -0.37900
C2871       C  0.74640720  0.96361069  0.03561120    -0.04600
C2872       C  0.72736624  0.98390376  0.02530658    -0.01700
C2873       C  0.72794892  0.98429239  0.00511251     0.03300
C2874       C  0.74716906  0.96395449  0.99483831    -0.04600
C2875       C  0.76552552  0.43984905  0.00428956    -0.01700
C2876       C  0.76532021  0.43957331  0.02453456     0.03300
C2877       C  0.70645028  0.00403964  0.03545746     0.38000
C2878       C  0.78994861  0.42449480  0.99399044     0.38000
C2879       C  0.78900487  0.42316513  0.03481562     0.36400
C2880       C  0.70816881  0.00544326  0.99495956     0.36400
N2881       N  0.80787559  0.41010603  0.04305396    -0.38400
N2882       N  0.69251573  0.02243285  0.98689070    -0.38400
N2883       N  0.80955457  0.41248303  0.98575282    -0.37900
N2884       N  0.68975634  0.02005402  0.04354757    -0.37900
C2885       C  0.91012841  0.28935784  0.09558950    -0.04600
C2886       C  0.89407075  0.30685767  0.08189011    -0.01700
C2887       C  0.86179059  0.30691942  0.08167564     0.03300
C2888       C  0.84519977  0.28935587  0.09509335    -0.04600
C2889       C  0.86121952  0.27156279  0.10868629    -0.01700
C2890       C  0.89357115  0.27166207  0.10897877     0.03300
C2891       C  0.91077712  0.32399075  0.06750406     0.38000
C2892       C  0.84445862  0.25405246  0.12286991     0.38000
C2893       C  0.90976992  0.25455555  0.12358360     0.36400
C2894       C  0.84563579  0.32428481  0.06716305     0.36400
N2895       N  0.92268291  0.24103462  0.13528879    -0.38400
N2896       N  0.83268833  0.33803797  0.05558255    -0.38400
N2897       N  0.83113225  0.24013757  0.13422262    -0.37900
N2898       N  0.92414980  0.33750238  0.05599017    -0.37900
C2899       C  0.66026875  0.29455027  0.09429535    -0.04600
C2900       C  0.64378445  0.27707047  0.08069580    -0.01700
C2901       C  0.61142953  0.27698983  0.08079505     0.03300
C2902       C  0.59506893  0.29442087  0.09447252    -0.04600
C2903       C  0.61152976  0.31297324  0.10753653    -0.01700
C2904       C  0.64390591  0.31300455  0.10746518     0.03300
C2905       C  0.66007685  0.26019019  0.06596479     0.38000
C2906       C  0.59526138  0.33148848  0.12149077     0.38000
C2907       C  0.66028443  0.33143787  0.12140291     0.36400
C2908       C  0.59497887  0.26001043  0.06618385     0.36400
N2909       N  0.67329818  0.34621886  0.13249416    -0.38400
N2910       N  0.58181961  0.24662700  0.05448484    -0.38400
N2911       N  0.58235450  0.34636744  0.13258646    -0.37900
N2912       N  0.67307530  0.24687263  0.05415965    -0.37900
C2913       C  0.00009963  0.29535005  0.03751957    -0.04600
C2914       C  0.02303608  0.31072378  0.02697902    -0.01700
C2915       C  0.02282919  0.31001064  0.00669727     0.03300
C2916       C  0.99956536  0.29406760  0.99670244    -0.04600
C2917       C  0.47662337  0.27878466  0.00740577    -0.01700
C2918       C  0.47691976  0.27936234  0.02765318     0.03300
C2919       C  0.04780742  0.32593329  0.03702128     0.38000
C2920       C  0.45201279  0.26318167  0.99742707     0.38000
C2921       C  0.45272423  0.26414047  0.03822515     0.36400
C2922       C  0.04759461  0.32424144  0.99612887     0.36400
N2923       N  0.43342573  0.25203024  0.04666632    -0.38400
N2924       N  0.06745326  0.33536761  0.98766806    -0.38400
N2925       N  0.43236826  0.25078655  0.98945507    -0.37900
N2926       N  0.06761373  0.33790938  0.04508461    -0.37900
C2927       C  0.84087387  0.96493270  0.09264962    -0.04600
C2928       C  0.85691392  0.94892200  0.10707695    -0.01700
C2929       C  0.88926224  0.94943090  0.10755757     0.03300
C2930       C  0.90592174  0.96571761  0.09351761    -0.04600
C2931       C  0.88724117  0.47587130  0.07753886    -0.01700
C2932       C  0.85490917  0.47537208  0.07708154     0.03300
C2933       C  0.84016443  0.93258491  0.12180397     0.38000
C2934       C  0.90409562  0.48958426  0.06184565     0.38000
C2935       C  0.83880268  0.48868570  0.06096909     0.36400
C2936       C  0.90532254  0.93419995  0.12300976     0.36400
N2937       N  0.82590911  0.49919309  0.04810360    -0.38400
N2938       N  0.91810336  0.92211207  0.13536560    -0.38400
N2939       N  0.91758392  0.50042398  0.04931746    -0.37900
N2940       N  0.82681992  0.91945010  0.13350572    -0.37900
C2941       C  0.59084795  0.96989061  0.09449910    -0.04600
C2942       C  0.60424756  0.44547638  0.08068847    -0.01700
C2943       C  0.63658520  0.44505238  0.08060361     0.03300
C2944       C  0.65589994  0.97103418  0.09384242    -0.04600
C2945       C  0.63961687  0.98780313  0.10786517    -0.01700
C2946       C  0.60723274  0.98730902  0.10815525     0.03300
C2947       C  0.58750524  0.42785976  0.06650458     0.38000
C2948       C  0.65617853  0.00472357  0.12243356     0.38000
C2949       C  0.59080177  0.00388856  0.12294579     0.36400
C2950       C  0.65266914  0.42663918  0.06651675     0.36400
N2951       N  0.57767062  0.01705474  0.13475980    -0.38400
N2952       N  0.66553544  0.41204772  0.05525788    -0.38400
N2953       N  0.66938963  0.01815404  0.13408818    -0.37900
N2954       N  0.57412742  0.41400344  0.05512178    -0.37900
C2955       C  0.00104093  0.96370357  0.03696002    -0.04600
C2956       C  0.02025265  0.98394545  0.02670438    -0.01700
C2957       C  0.02049591  0.98381284  0.00648305     0.03300
C2958       C  0.00151618  0.96337624  0.99610671    -0.04600
C2959       C  0.47663397  0.43831137  0.00556398    -0.01700
C2960       C  0.47670096  0.43829635  0.02584466     0.03300
C2961       C  0.04068263  0.00446384  0.03694794     0.38000
C2962       C  0.45332104  0.42128373  0.99530662     0.38000
C2963       C  0.45381669  0.42079159  0.03613614     0.36400
C2964       C  0.04114418  0.00420369  0.99639519     0.36400
N2965       N  0.43553568  0.40687551  0.04436413    -0.38400
N2966       N  0.05764235  0.02046036  0.98835061    -0.38400
N2967       N  0.43463019  0.40790651  0.98706947    -0.37900
N2968       N  0.05697618  0.02076213  0.04510951    -0.37900
C2969       C  0.70984163  0.24701444  0.49544128    -0.04600
C2970       C  0.72615910  0.26958932  0.50580222    -0.01700
C2971       C  0.72671460  0.26913210  0.52604884     0.03300
C2972       C  0.71026226  0.24656993  0.53630463    -0.04600
C2973       C  0.69370562  0.22413662  0.52595896    -0.01700
C2974       C  0.69365855  0.22423956  0.50566354     0.03300
C2975       C  0.74185077  0.29389528  0.49561661     0.38000
C2976       C  0.67824239  0.19975272  0.53617472     0.38000
C2977       C  0.67843815  0.19979830  0.49530045     0.36400
C2978       C  0.74405227  0.29224127  0.53632325     0.36400
N2979       N  0.66654200  0.18018798  0.48699050    -0.38400
N2980       N  0.75799229  0.31058677  0.54451832    -0.38400
N2981       N  0.66610740  0.18017440  0.54432634    -0.37900
N2982       N  0.75424344  0.31332469  0.48747308    -0.37900
C2983       C  0.71015793  0.40223825  0.43424189    -0.04600
C2984       C  0.72897828  0.38591113  0.42130625    -0.01700
C2985       C  0.73015210  0.35358319  0.42191849     0.03300
C2986       C  0.71251035  0.33730513  0.43548598    -0.04600
C2987       C  0.69335641  0.35365577  0.44819641    -0.01700
C2988       C  0.69206264  0.38590198  0.44750257     0.03300
C2989       C  0.74639636  0.40233550  0.40693035     0.38000
C2990       C  0.67620117  0.33737007  0.46274416     0.38000
C2991       C  0.67316770  0.40233862  0.46111838     0.36400
C2992       C  0.74884261  0.33707801  0.40818377     0.36400
N2993       N  0.65824380  0.41553956  0.47202353    -0.38400
N2994       N  0.76369887  0.32394222  0.39718496    -0.38400
N2995       N  0.66282559  0.32423172  0.47441608    -0.37900
N2996       N  0.76016612  0.41547088  0.39542294    -0.37900
C2997       C  0.71454297  0.08745536  0.43729839    -0.04600
C2998       C  0.69720847  0.10429155  0.42385178    -0.01700
C2999       C  0.69812112  0.13658496  0.42387391     0.03300
C3000       C  0.71599643  0.15251687  0.43753697    -0.04600
C3001       C  0.73366653  0.13571928  0.45079853    -0.01700
C3002       C  0.73322169  0.10337341  0.45054208     0.03300
C3003       C  0.67931821  0.08845286  0.40939004     0.38000
C3004       C  0.75133091  0.15165917  0.46530407     0.38000
C3005       C  0.75138642  0.08655649  0.46434835     0.36400
C3006       C  0.68150553  0.15334424  0.40927023     0.36400
N3007       N  0.76599843  0.07313970  0.47529486    -0.38400
N3008       N  0.66840373  0.16667379  0.39755977    -0.38400
N3009       N  0.76531053  0.16438336  0.47691532    -0.37900
N3010       N  0.66512897  0.07591330  0.39779829    -0.37900
C3011       C  0.70406099  0.49137389  0.49364252    -0.04600
C3012       C  0.68822742  0.01506123  0.50489492    -0.01700
C3013       C  0.68862561  0.01552434  0.52517365     0.03300
C3014       C  0.70614367  0.99387126  0.53547527    -0.04600
C3015       C  0.72333688  0.47177947  0.52430641    -0.01700
C3016       C  0.72296075  0.47108172  0.50405868     0.03300
C3017       C  0.67121952  0.03826237  0.49458697     0.38000
C3018       C  0.74260763  0.45037695  0.53460598     0.38000
C3019       C  0.74127874  0.44855568  0.49393419     0.36400
C3020       C  0.67237056  0.03944564  0.53539229     0.36400
N3021       N  0.75569924  0.43049971  0.48581218    -0.38400
N3022       N  0.65957699  0.05865375  0.54354189    -0.38400
N3023       N  0.75793878  0.43326255  0.54280788    -0.37900
N3024       N  0.65774217  0.05680800  0.48633578    -0.37900
C3025       C  0.04943438  0.24879962  0.49661284    -0.04600
C3026       C  0.03225470  0.22703795  0.50705170    -0.01700
C3027       C  0.03148312  0.22806466  0.52727013     0.03300
C3028       C  0.04806275  0.25072627  0.53740432    -0.04600
C3029       C  0.56728890  0.27127919  0.52714853    -0.01700
C3030       C  0.56788837  0.27042941  0.50686925     0.03300
C3031       C  0.01564484  0.20314942  0.49699283     0.38000
C3032       C  0.58460817  0.29451650  0.53724348     0.38000
C3033       C  0.58520636  0.29325229  0.49644508     0.36400
C3034       C  0.01393349  0.20530762  0.53768592     0.36400
N3035       N  0.59869915  0.31165344  0.48807163    -0.38400
N3036       N  0.99994876  0.18717378  0.54599379    -0.38400
N3037       N  0.59844548  0.31326603  0.54511833    -0.37900
N3038       N  0.00242442  0.18409812  0.48896439    -0.37900
C3039       C  0.04576850  0.34175443  0.43888381    -0.04600
C3040       C  0.56166060  0.35814184  0.42388424    -0.01700
C3041       C  0.56134516  0.39050207  0.42363228     0.03300
C3042       C  0.04547469  0.40681042  0.43855917    -0.04600
C3043       C  0.03187404  0.39064634  0.45387036    -0.01700
C3044       C  0.03197098  0.35828168  0.45401338     0.03300
C3045       C  0.57573434  0.34146083  0.40820809     0.38000
C3046       C  0.01886974  0.40733545  0.46990219     0.38000
C3047       C  0.01916733  0.34199244  0.47022613     0.36400
C3048       C  0.57403626  0.40669728  0.40734976     0.36400
N3049       N  0.00915702  0.32898361  0.48320881    -0.38400
N3050       N  0.58400772  0.41959278  0.39431179    -0.38400
N3051       N  0.00865234  0.42069757  0.48271565    -0.37900
N3052       N  0.58707221  0.32815392  0.39574634    -0.37900
C3053       C  0.04459643  0.09179601  0.43838110    -0.04600
C3054       C  0.06220095  0.10821172  0.45191886    -0.01700
C3055       C  0.06200289  0.14054067  0.45199847     0.03300
C3056       C  0.04407548  0.15680275  0.43860089    -0.04600
C3057       C  0.52631793  0.14074718  0.42488616    -0.01700
C3058       C  0.52668922  0.10839431  0.42466841     0.03300
C3059       C  0.07958057  0.09183543  0.46631889     0.38000
C3060       C  0.50918273  0.15721902  0.41041907     0.38000
C3061       C  0.51019053  0.09191111  0.40986800     0.36400
C3062       C  0.07938527  0.15706460  0.46638996     0.36400
N3063       N  0.49713234  0.07875210  0.39802632    -0.38400
N3064       N  0.09315253  0.17029057  0.47788208    -0.38400
N3065       N  0.49555325  0.17034717  0.39885802    -0.37900
N3066       N  0.09329559  0.07872432  0.47784503    -0.37900
C3067       C  0.04772546  0.00057531  0.53739863    -0.04600
C3068       C  0.03433131  0.52398902  0.52648572    -0.01700
C3069       C  0.03453594  0.52419214  0.50622270     0.03300
C3070       C  0.04933384  0.00106045  0.49652526    -0.04600
C3071       C  0.56862972  0.98187232  0.50694566    -0.01700
C3072       C  0.56803287  0.98192349  0.52723729     0.03300
C3073       C  0.01821098  0.54792942  0.53680771     0.38000
C3074       C  0.58735281  0.95972201  0.49691784     0.38000
C3075       C  0.58749319  0.96094925  0.53765930     0.36400
C3076       C  0.01849245  0.54823052  0.49603428     0.36400
N3077       N  0.60316218  0.94414386  0.54583584    -0.38400
N3078       N  0.00578549  0.56744775  0.48789909    -0.38400
N3079       N  0.60192994  0.94178410  0.48884798    -0.37900
N3080       N  0.00550582  0.56710884  0.54504340    -0.37900
C3081       C  0.74088005  0.25426847  0.28605001    -0.04600
C3082       C  0.71630922  0.24910420  0.27307815    -0.01700
C3083       C  0.72027725  0.25371941  0.25318481     0.03300
C3084       C  0.74801982  0.26550846  0.24591021    -0.04600
C3085       C  0.77232561  0.27134729  0.25863127    -0.01700
C3086       C  0.76935184  0.26449986  0.27836994     0.03300
C3087       C  0.68680397  0.23839646  0.27987346     0.38000
C3088       C  0.80075140  0.28393736  0.25131191     0.38000
C3089       C  0.79618952  0.26744900  0.29042065     0.36400
C3090       C  0.69547151  0.24640820  0.24013770     0.36400
N3091       N  0.81799985  0.26924067  0.29974486    -0.38400
N3092       N  0.67567802  0.24021175  0.22984207    -0.38400
N3093       N  0.82333986  0.29422174  0.24552577    -0.37900
N3094       N  0.66311062  0.23006914  0.28514953    -0.37900
C3095       C  0.72949607  0.40322773  0.34549027    -0.04600
C3096       C  0.70962640  0.38673008  0.35768244    -0.01700
C3097       C  0.71105222  0.35442571  0.35841717     0.03300
C3098       C  0.73259166  0.33825597  0.34712522    -0.04600
C3099       C  0.75400967  0.35497895  0.33613442    -0.01700
C3100       C  0.75210359  0.38717935  0.33502468     0.03300
C3101       C  0.68855908  0.40301484  0.37012714     0.38000
C3102       C  0.77794250  0.33930205  0.32564508     0.38000
C3103       C  0.77276299  0.40362105  0.32241000     0.36400
C3104       C  0.69128582  0.33793756  0.37153771     0.36400
N3105       N  0.78919519  0.41668544  0.31231984    -0.38400
N3106       N  0.67571407  0.32483342  0.38212869    -0.38400
N3107       N  0.79757050  0.32739762  0.31740122    -0.37900
N3108       N  0.67194670  0.41598134  0.38018126    -0.37900
C3109       C  0.72266739  0.08820512  0.34230065    -0.04600
C3110       C  0.71253055  0.10465435  0.32611611    -0.01700
C3111       C  0.71361081  0.13705589  0.32598403     0.03300
C3112       C  0.72480903  0.15329883  0.34204799    -0.04600
C3113       C  0.73441177  0.13679405  0.35836179    -0.01700
C3114       C  0.73336091  0.10445185  0.35847905     0.03300
C3115       C  0.70216983  0.08816031  0.30928516     0.38000
C3116       C  0.74463960  0.15313516  0.37528960     0.38000
C3117       C  0.74259351  0.08786079  0.37548880     0.36400
C3118       C  0.70445131  0.15358722  0.30896938     0.36400
N3119       N  0.74988278  0.07460469  0.38905781    -0.38400
N3120       N  0.69728223  0.16663131  0.29530198    -0.38400
N3121       N  0.75273104  0.16615947  0.38880668    -0.37900
N3122       N  0.69402089  0.07491649  0.29586397    -0.37900
C3123       C  0.73402991  0.99135948  0.28528216    -0.04600
C3124       C  0.75734557  0.00812067  0.27581594    -0.01700
C3125       C  0.76171431  0.00510694  0.25581867     0.03300
C3126       C  0.74248548  0.98582149  0.24488799    -0.04600
C3127       C  0.71805615  0.46580625  0.25372903    -0.01700
C3128       C  0.71481974  0.46866360  0.27380804     0.03300
C3129       C  0.77639849  0.02931635  0.28649464     0.38000
C3130       C  0.69721142  0.44613844  0.24318468     0.38000
C3131       C  0.69269809  0.44955068  0.28366159     0.36400
C3132       C  0.78673222  0.02117476  0.24657808     0.36400
N3133       N  0.67509584  0.43421872  0.29148153    -0.38400
N3134       N  0.80678072  0.03383887  0.23920503    -0.38400
N3135       N  0.68049033  0.43059971  0.23476378    -0.37900
N3136       N  0.79153207  0.04629702  0.29500105    -0.37900
C3137       C  0.02017563  0.25609445  0.28703455    -0.04600
C3138       C  0.99651880  0.27539828  0.28003138    -0.01700
C3139       C  0.99244513  0.27987361  0.26011085     0.03300
C3140       C  0.01251729  0.26608434  0.24680590    -0.04600
C3141       C  0.53684755  0.24809199  0.25382124    -0.01700
C3142       C  0.54043039  0.24266765  0.27368980     0.03300
C3143       C  0.97700566  0.29198219  0.29327755     0.38000
C3144       C  0.55923464  0.23587615  0.24048451     0.38000
C3145       C  0.56472370  0.22255544  0.28013476     0.36400
C3146       C  0.96704419  0.29823447  0.25329437     0.36400
N3147       N  0.58411958  0.20647931  0.28521605    -0.38400
N3148       N  0.94672940  0.31278409  0.24783688    -0.38400
N3149       N  0.57724408  0.22640172  0.22986558    -0.37900
N3150       N  0.96156454  0.30538830  0.30382482    -0.37900
C3151       C  0.03228474  0.34077267  0.34518919    -0.04600
C3152       C  0.54592176  0.35684301  0.32978991    -0.01700
C3153       C  0.54649730  0.38916535  0.32977216     0.03300
C3154       C  0.03196145  0.40567874  0.34473776    -0.04600
C3155       C  0.01916746  0.38960268  0.36035656    -0.01700
C3156       C  0.01969202  0.35730545  0.36068964     0.03300
C3157       C  0.55742716  0.34004473  0.31334288     0.38000
C3158       C  0.00641780  0.40629792  0.37646715     0.38000
C3159       C  0.00812711  0.34108454  0.37728812     0.36400
C3160       C  0.56053453  0.40522336  0.31387021     0.36400
N3161       N  0.99908951  0.32812062  0.39056407    -0.38400
N3162       N  0.57176387  0.41796003  0.30117058    -0.38400
N3163       N  0.99630184  0.41961476  0.38932671    -0.37900
N3164       N  0.56628665  0.32661262  0.30016840    -0.37900
C3165       C  0.02844964  0.09074502  0.34470507    -0.04600
C3166       C  0.01003868  0.10717444  0.33164885    -0.01700
C3167       C  0.01079527  0.13955272  0.33134986     0.03300
C3168       C  0.02920770  0.15589366  0.34450058    -0.04600
C3169       C  0.54717451  0.13946942  0.35787864    -0.01700
C3170       C  0.54712438  0.10709497  0.35775713     0.03300
C3171       C  0.99089399  0.09078815  0.31812302     0.38000
C3172       C  0.56455637  0.15581368  0.37234655     0.38000
C3173       C  0.56511161  0.09056243  0.37180318     0.36400
C3174       C  0.99360133  0.15605153  0.31692903     0.36400
N3175       N  0.57936438  0.07739101  0.38304895    -0.38400
N3176       N  0.98009237  0.16928180  0.30536012    -0.38400
N3177       N  0.57821290  0.16879151  0.38400187    -0.37900
N3178       N  0.97555410  0.07773226  0.30735729    -0.37900
C3179       C  0.00700948  0.98830238  0.24696784    -0.04600
C3180       C  0.51659103  0.01598534  0.25506097    -0.01700
C3181       C  0.52371881  0.01796969  0.27481545     0.03300
C3182       C  0.01871029  0.99319032  0.28723864    -0.04600
C3183       C  0.00423811  0.46549348  0.27853955    -0.01700
C3184       C  0.00001522  0.46213344  0.25852345     0.03300
C3185       C  0.51908295  0.04352478  0.24361673     0.38000
C3186       C  0.99665372  0.44031524  0.29119852     0.38000
C3187       C  0.98999299  0.43266130  0.25125071     0.36400
C3188       C  0.53629407  0.04607265  0.28264701     0.36400
N3189       N  0.98226370  0.40896006  0.24561404    -0.38400
N3190       N  0.54657365  0.06840963  0.28883341    -0.38400
N3191       N  0.99012884  0.42025478  0.30118423    -0.37900
N3192       N  0.52089494  0.06570346  0.23465991    -0.37900
C3193       C  0.90849580  0.27371707  0.84711491    -0.04600
C3194       C  0.89220424  0.24696523  0.84170887    -0.01700
C3195       C  0.85983712  0.24680779  0.84146093     0.03300
C3196       C  0.84313147  0.27331278  0.84671809    -0.04600
C3197       C  0.85938584  0.29892095  0.85396126    -0.01700
C3198       C  0.89169870  0.29922691  0.85403190     0.03300
C3199       C  0.90838706  0.21922730  0.83638367     0.38000
C3200       C  0.84301836  0.32456110  0.86240483     0.38000
C3201       C  0.90743297  0.32557655  0.86208695     0.36400
C3202       C  0.84402322  0.21902213  0.83579834     0.36400
N3203       N  0.91984001  0.34660353  0.86854638    -0.38400
N3204       N  0.83173302  0.19655079  0.83155044    -0.38400
N3205       N  0.83011946  0.34494244  0.86928117    -0.37900
N3206       N  0.92094370  0.19677382  0.83242521    -0.37900
C3207       C  0.59339268  0.28359859  0.84169628    -0.04600
C3208       C  0.60993265  0.30921143  0.84866422    -0.01700
C3209       C  0.64225951  0.30896902  0.84874082     0.03300
C3210       C  0.65846922  0.28324401  0.84166083    -0.04600
C3211       C  0.64196222  0.25924954  0.83280265    -0.01700
C3212       C  0.60970470  0.25928747  0.83293708     0.03300
C3213       C  0.59397777  0.33611494  0.85568910     0.38000
C3214       C  0.65809314  0.23530444  0.82244250     0.38000
C3215       C  0.59345070  0.23492895  0.82307764     0.36400
C3216       C  0.65861369  0.33543675  0.85605036     0.36400
N3217       N  0.58058358  0.21555582  0.81511829    -0.38400
N3218       N  0.67163792  0.35677097  0.86156675    -0.38400
N3219       N  0.67097888  0.21643986  0.81404018    -0.37900
N3220       N  0.58140227  0.35785407  0.86096180    -0.37900
C3221       C  0.90244458  0.47483456  0.84195147    -0.04600
C3222       C  0.88647788  0.46237071  0.82615589    -0.01700
C3223       C  0.85409843  0.46180347  0.82600484     0.03300
C3224       C  0.83735162  0.47375602  0.84163044    -0.04600
C3225       C  0.85704379  0.99654224  0.85800606    -0.01700
C3226       C  0.88941888  0.99666083  0.85831760     0.03300
C3227       C  0.90339478  0.45116867  0.80970104     0.38000
C3228       C  0.84017054  0.01040222  0.87367977     0.38000
C3229       C  0.90545060  0.01056713  0.87430773     0.36400
C3230       C  0.83798313  0.44988888  0.80944515     0.36400
N3231       N  0.91822613  0.02156159  0.88709441    -0.38400
N3232       N  0.82506752  0.44048909  0.79622778    -0.38400
N3233       N  0.82676333  0.02137550  0.88622529    -0.37900
N3234       N  0.91696127  0.44239297  0.79656425    -0.37900
C3235       C  0.58739309  0.47252180  0.84423015    -0.04600
C3236       C  0.60376451  0.45485028  0.85770746    -0.01700
C3237       C  0.63613292  0.45454568  0.85747608     0.03300
C3238       C  0.65237284  0.47194816  0.84376997    -0.04600
C3239       C  0.63969419  0.99775696  0.83162109    -0.01700
C3240       C  0.60738813  0.99813703  0.83197204     0.03300
C3241       C  0.58733785  0.43778376  0.87225107     0.38000
C3242       C  0.65595659  0.01641863  0.81777426     0.38000
C3243       C  0.59084768  0.01751599  0.81868204     0.36400
C3244       C  0.65269760  0.43724591  0.87182248     0.36400
N3245       N  0.57764524  0.03294410  0.80807432    -0.38400
N3246       N  0.66587892  0.42355904  0.88333659    -0.38400
N3247       N  0.66896964  0.03116109  0.80669754    -0.37900
N3248       N  0.57425971  0.42426012  0.88389340    -0.37900
C3249       C  0.73258231  0.25497769  0.74648003    -0.04600
C3250       C  0.75469692  0.23750217  0.75645865    -0.01700
C3251       C  0.76039023  0.24276396  0.77617139     0.03300
C3252       C  0.74388347  0.26538896  0.78638695    -0.04600
C3253       C  0.72113474  0.28228146  0.77654423    -0.01700
C3254       C  0.71571357  0.27731176  0.75675648     0.03300
C3255       C  0.77108291  0.21328590  0.74657794     0.38000
C3256       C  0.70227736  0.30402295  0.78694250     0.38000
C3257       C  0.69330714  0.29599158  0.74688599     0.36400
C3258       C  0.78389350  0.22519134  0.78578172     0.36400
N3259       N  0.67546982  0.31094360  0.73901390    -0.38400
N3260       N  0.80276544  0.21104613  0.79326209    -0.38400
N3261       N  0.68710468  0.32121489  0.79525997    -0.37900
N3262       N  0.78403747  0.19388395  0.73870835    -0.37900
C3263       C  0.72194324  0.40535834  0.68647113    -0.04600
C3264       C  0.70389333  0.38857532  0.67335640    -0.01700
C3265       C  0.70386037  0.35628575  0.67381770     0.03300
C3266       C  0.72169575  0.34055264  0.68749671    -0.04600
C3267       C  0.73888136  0.35736141  0.70103612    -0.01700
C3268       C  0.73922902  0.38964642  0.70041994     0.03300
C3269       C  0.68582359  0.40450761  0.65908527     0.38000
C3270       C  0.75471638  0.34148371  0.71632905     0.38000
C3271       C  0.75618730  0.40673446  0.71475421     0.36400
C3272       C  0.68590753  0.33927743  0.65993256     0.36400
N3273       N  0.76959578  0.42038797  0.72621903    -0.38400
N3274       N  0.67162538  0.32574905  0.64882891    -0.38400
N3275       N  0.76702580  0.32881627  0.72864481    -0.37900
N3276       N  0.67146473  0.41721488  0.64768517    -0.37900
C3277       C  0.72312373  0.15566913  0.68902414    -0.04600
C3278       C  0.70601892  0.13899536  0.70267410    -0.01700
C3279       C  0.70560069  0.10663253  0.70219784     0.03300
C3280       C  0.72276872  0.09043689  0.68828046    -0.04600
C3281       C  0.73960527  0.10712623  0.67449856    -0.01700
C3282       C  0.73960590  0.13950585  0.67478536     0.03300
C3283       C  0.68952456  0.15508665  0.71765892     0.38000
C3284       C  0.75578185  0.09104503  0.65937775     0.38000
C3285       C  0.75536503  0.15615242  0.65976912     0.36400
C3286       C  0.68790699  0.09005783  0.71638061     0.36400
N3287       N  0.76777337  0.16940403  0.64772316    -0.38400
N3288       N  0.67364903  0.07687524  0.72763201    -0.38400
N3289       N  0.76860426  0.07823030  0.64728347    -0.37900
N3290       N  0.67642946  0.16793911  0.72962281    -0.37900
C3291       C  0.73266221  0.99381545  0.74524638    -0.04600
C3292       C  0.71032718  0.47178246  0.75496589    -0.01700
C3293       C  0.71448796  0.46714405  0.77486402     0.03300
C3294       C  0.73867717  0.48176826  0.78474188    -0.04600
C3295       C  0.76037743  0.00756001  0.77473284    -0.01700
C3296       C  0.75571295  0.01087590  0.75478209     0.03300
C3297       C  0.68590363  0.45555923  0.74520059     0.38000
C3298       C  0.78495606  0.02422965  0.78404480     0.38000
C3299       C  0.77437743  0.03245637  0.74418321     0.36400
C3300       C  0.69321631  0.44783782  0.78528427     0.36400
N3301       N  0.78928355  0.04967642  0.73574322    -0.38400
N3302       N  0.67624467  0.43247094  0.79360187    -0.38400
N3303       N  0.80463832  0.03738472  0.79148754    -0.37900
N3304       N  0.66641781  0.44257019  0.73744696    -0.37900
C3305       C  0.00934730  0.26191044  0.74593270    -0.04600
C3306       C  0.99177306  0.24105609  0.75675000    -0.01700
C3307       C  0.98852398  0.24490575  0.77678973     0.03300
C3308       C  0.00294261  0.26966210  0.78639749    -0.04600
C3309       C  0.52121179  0.29082158  0.77565892    -0.01700
C3310       C  0.52439789  0.28700126  0.75561824     0.03300
C3311       C  0.97776629  0.21494418  0.74733259     0.38000
C3312       C  0.53729289  0.31573764  0.78504602     0.38000
C3313       C  0.54153662  0.30938963  0.74464167     0.36400
C3314       C  0.96971329  0.22348032  0.78734639     0.36400
N3315       N  0.55506544  0.32728527  0.73585170    -0.38400
N3316       N  0.95462520  0.20615029  0.79554472    -0.38400
N3317       N  0.55020651  0.33560404  0.79247758    -0.37900
N3318       N  0.96668383  0.19408488  0.73981090    -0.37900
C3319       C  0.01996214  0.41111511  0.68617140    -0.04600
C3320       C  0.99884071  0.39498449  0.69771016    -0.01700
C3321       C  0.99819634  0.36266759  0.69747700     0.03300
C3322       C  0.01928379  0.34604580  0.68611299    -0.04600
C3323       C  0.54073099  0.36221796  0.67454932    -0.01700
C3324       C  0.54071427  0.39455796  0.67441957     0.03300
C3325       C  0.97870391  0.41156255  0.71061675     0.38000
C3326       C  0.56194338  0.34572358  0.66229990     0.38000
C3327       C  0.56154610  0.41080565  0.66183376     0.36400
C3328       C  0.97637828  0.34659823  0.70948020     0.36400
N3329       N  0.57808851  0.42373760  0.65174095    -0.38400
N3330       N  0.95885289  0.33380914  0.71897799    -0.38400
N3331       N  0.57887035  0.33265592  0.65251048    -0.37900
N3332       N  0.96279989  0.42478125  0.72098146    -0.37900
C3333       C  0.02211157  0.09613758  0.69004465    -0.04600
C3334       C  0.01148741  0.11241115  0.67390984    -0.01700
C3335       C  0.01125547  0.14475506  0.67396294     0.03300
C3336       C  0.02162724  0.16118090  0.69016138    -0.04600
C3337       C  0.53303334  0.14490377  0.70689954    -0.01700
C3338       C  0.53328153  0.11250194  0.70683741     0.03300
C3339       C  0.00181306  0.09581873  0.65695977     0.38000
C3340       C  0.54155135  0.16154914  0.72406266     0.38000
C3341       C  0.54187511  0.09597859  0.72398264     0.36400
C3342       C  0.00144083  0.16119742  0.65703207     0.36400
N3343       N  0.54862498  0.08274350  0.73766745    -0.38400
N3344       N  0.99376556  0.17448377  0.64356427    -0.38400
N3345       N  0.54827403  0.17491701  0.73774136    -0.37900
N3346       N  0.99422869  0.08238979  0.64348870    -0.37900
C3347       C  0.00078493  0.48443261  0.78557920    -0.04600
C3348       C  0.98755724  0.01279020  0.77670790    -0.01700
C3349       C  0.99178798  0.01687169  0.75677378     0.03300
C3350       C  0.01003489  0.49476523  0.74554997    -0.04600
C3351       C  0.52407045  0.46956959  0.75477496    -0.01700
C3352       C  0.51972851  0.46452388  0.77461760     0.03300
C3353       C  0.96613465  0.03229390  0.78688449     0.38000
C3354       C  0.54253000  0.44826133  0.74374754     0.38000
C3355       C  0.53565837  0.43935207  0.78375103     0.36400
C3356       C  0.97631544  0.04177199  0.74706871     0.36400
N3357       N  0.54839615  0.41924062  0.79097532    -0.38400
N3358       N  0.96406934  0.06170095  0.73933521    -0.38400
N3359       N  0.55716320  0.43123261  0.73493464    -0.37900
N3360       N  0.94897526  0.04778503  0.79499283    -0.37900
O3361       O  0.99213496  0.50344518  0.71339857    -0.71000
O3362       O  0.00299817  0.00334079  0.66007208    -0.71200
O3363       O  0.99804646  0.96002695  0.68722159    -0.71100
O3364       O  0.99916138  0.54782028  0.68670956    -0.71100
O3365       O  0.54804537  0.54611939  0.69231755    -0.71000
O3366       O  0.54824034  0.95990901  0.68890724    -0.71100
O3367       O  0.55275938  0.50543880  0.66319200    -0.71000
O3368       O  0.54332720  0.00038426  0.71779003    -0.71200
V3369       V  0.99889647  0.00357396  0.68722539     1.35200
V3370       V  0.54737400  0.00339920  0.69067147     1.35200
C3371       C  0.51696047  0.00091735  0.72533040     0.78200
C3372       C  0.53006696  0.50506129  0.65192859     0.78300
C3373       C  0.02290962  0.94522976  0.68790935     0.78200
C3374       C  0.02401636  0.56185892  0.68980163     0.78100
O3375       O  0.54425439  0.75763073  0.71677767    -0.71000
O3376       O  0.55430323  0.75104886  0.66267218    -0.71200
O3377       O  0.54851535  0.79767615  0.68769404    -0.71100
O3378       O  0.55012377  0.71067781  0.69178114    -0.71100
O3379       O  0.00086109  0.70936071  0.68677548    -0.71000
O3380       O  0.99876161  0.79643674  0.68626965    -0.71100
O3381       O  0.00466239  0.75238994  0.65945874    -0.71000
O3382       O  0.99484332  0.75343300  0.71362354    -0.71200
V3383       V  0.54837373  0.75419190  0.68966767     1.35200
V3384       V  0.00074243  0.75290543  0.68660709     1.35200
C3385       C  0.01767737  0.75643649  0.72460255     0.78200
C3386       C  0.03098840  0.75114701  0.65195502     0.78300
C3387       C  0.02324605  0.81188484  0.68686060     0.78200
C3388       C  0.02564651  0.69513857  0.68964923     0.78100
O3389       O  0.75162094  0.99744209  0.71301286    -0.71000
O3390       O  0.74169347  0.49839696  0.65816360    -0.71200
O3391       O  0.74469784  0.54165497  0.68565451    -0.71100
O3392       O  0.74656884  0.95390429  0.68606223    -0.71100
O3393       O  0.69696984  0.95451628  0.68827536    -0.71000
O3394       O  0.69532559  0.54058002  0.68887393    -0.71100
O3395       O  0.69330634  0.99884050  0.66180156    -0.71000
O3396       O  0.70041214  0.49566304  0.71539164    -0.71200
V3397       V  0.74463303  0.49799496  0.68535734     1.35200
V3398       V  0.69711596  0.49710274  0.68808165     1.35200
C3399       C  0.72659988  0.49516147  0.72323305     0.78200
C3400       C  0.71568287  0.49807128  0.65022868     0.78300
C3401       C  0.71966232  0.55604418  0.68732035     0.78200
C3402       C  0.72153031  0.93940571  0.68707444     0.78100
O3403       O  0.74779211  0.74919761  0.71310226    -0.71000
O3404       O  0.73972703  0.74721298  0.65897759    -0.71200
O3405       O  0.74386716  0.79160522  0.68569581    -0.71100
O3406       O  0.74339040  0.70452640  0.68647657    -0.71100
O3407       O  0.69397404  0.70484025  0.68956558    -0.71000
O3408       O  0.69430200  0.79188969  0.68822123    -0.71100
O3409       O  0.69019692  0.74725380  0.66166104    -0.71000
O3410       O  0.69846070  0.74972059  0.71615936    -0.71200
V3411       V  0.74269564  0.74809513  0.68611217     1.35200
V3412       V  0.69517034  0.74838178  0.68886406     1.35200
C3413       C  0.72466094  0.75033551  0.72396313     0.78200
C3414       C  0.71372330  0.74692221  0.65105438     0.78300
C3415       C  0.71915765  0.80655334  0.68690813     0.78200
C3416       C  0.71857423  0.68977161  0.68801713     0.78100
O3417       O  0.50000150  0.95921530  0.81575206    -0.71000
O3418       O  0.99714615  0.95194314  0.87009065    -0.71200
O3419       O  0.95472189  0.95683471  0.84218823    -0.71100
O3420       O  0.54204955  0.95456173  0.84367623    -0.71100
O3421       O  0.53881194  0.49794692  0.84519952    -0.71000
O3422       O  0.95160454  0.49915145  0.84476455    -0.71100
O3423       O  0.49473412  0.49407095  0.87205878    -0.71000
O3424       O  0.99603327  0.50329384  0.81789451    -0.71200
V3425       V  0.99824709  0.95688034  0.84297869     1.35200
V3426       V  0.99524834  0.49773175  0.84490770     1.35200
C3427       C  0.00037889  0.98604203  0.80790271     0.78200
C3428       C  0.99813484  0.97538901  0.88073163     0.78300
C3429       C  0.94027444  0.98177291  0.84391625     0.78200
C3430       C  0.55708407  0.97922508  0.84486884     0.78100
O3431       O  0.49782108  0.74438994  0.81742122    -0.71000
O3432       O  0.99731436  0.75146650  0.87226895    -0.71200
O3433       O  0.95380367  0.74613890  0.84543595    -0.71100
O3434       O  0.54072139  0.74943360  0.84447375    -0.71100
O3435       O  0.53907395  0.79910847  0.84331451    -0.71000
O3436       O  0.95190822  0.79520758  0.84152646    -0.71100
O3437       O  0.49388234  0.80086953  0.86935970    -0.71000
O3438       O  0.99769604  0.79376809  0.81545531    -0.71200
V3439       V  0.99723696  0.74884296  0.84504713     1.35200
V3440       V  0.99536316  0.79633994  0.84266866     1.35200
C3441       C  0.99907636  0.76784839  0.80734814     0.78200
C3442       C  0.99508310  0.77736296  0.88028948     0.78300
C3443       C  0.93784509  0.77012359  0.84374214     0.78200
C3444       C  0.55464713  0.77476252  0.84388050     0.78100
O3445       O  0.74668800  0.95872678  0.81478004    -0.71000
O3446       O  0.75093697  0.95171280  0.86906053    -0.71200
O3447       O  0.70552194  0.95422683  0.84317081    -0.71100
O3448       O  0.79260097  0.95633942  0.84076090    -0.71100
O3449       O  0.78817918  0.49779141  0.84389533    -0.71000
O3450       O  0.70109381  0.49705716  0.84386358    -0.71100
O3451       O  0.74474259  0.49349487  0.87093287    -0.71000
O3452       O  0.74434565  0.50145677  0.81668891    -0.71200
V3453       V  0.74901651  0.95620818  0.84197338     1.35200
V3454       V  0.74463319  0.49647528  0.84377732     1.35200
C3455       C  0.74593153  0.98466202  0.80674762     0.78200
C3456       C  0.74984904  0.97528380  0.87957060     0.78300
C3457       C  0.69024818  0.97878516  0.84399927     0.78200
C3458       C  0.80699657  0.98131187  0.84268439     0.78100
O3459       O  0.74465924  0.74212354  0.81738942    -0.71000
O3460       O  0.74381996  0.75217410  0.87156659    -0.71200
O3461       O  0.70103887  0.74840852  0.84408364    -0.71100
O3462       O  0.78786360  0.74578952  0.84515202    -0.71100
O3463       O  0.78939776  0.79456166  0.83986552    -0.71000
O3464       O  0.70258114  0.79805134  0.84243884    -0.71100
O3465       O  0.74797252  0.80141180  0.86813457    -0.71000
O3466       O  0.74323323  0.79150325  0.81404008    -0.71200
V3467       V  0.74444013  0.74805355  0.84445734     1.35200
V3468       V  0.74589965  0.79543607  0.84115023     1.35200
C3469       C  0.74261048  0.76515338  0.80649853     0.78200
C3470       C  0.74585159  0.77848789  0.87906132     0.78300
C3471       C  0.68705598  0.77369283  0.84337245     0.78200
C3472       C  0.80362924  0.76976652  0.84282091     0.78100
O3473       O  0.54781683  0.49903276  0.31448729    -0.71000
O3474       O  0.56218479  0.99884828  0.36948366    -0.71200
O3475       O  0.55789902  0.95561308  0.34187146    -0.71100
O3476       O  0.55287046  0.54241450  0.34216411    -0.71100
O3477       O  0.00284153  0.54093952  0.34483553    -0.71000
O3478       O  0.00897192  0.95372859  0.34780627    -0.71100
O3479       O  0.00994915  0.49910656  0.37282535    -0.71000
O3480       O  0.00120378  0.99454664  0.31963950    -0.71200
V3481       V  0.55307469  0.49886832  0.34176458     1.35200
V3482       V  0.00520228  0.49730995  0.34577637     1.35200
C3483       C  0.02067865  0.49603295  0.30745912     0.78200
C3484       C  0.03641966  0.49875507  0.38013662     0.78300
C3485       C  0.03402761  0.93983249  0.34511142     0.78200
C3486       C  0.02724843  0.55648550  0.34362908     0.78100
O3487       O  0.00069737  0.75092989  0.31870926    -0.71000
O3488       O  0.01169048  0.74828764  0.37271600    -0.71200
O3489       O  0.00800329  0.79286365  0.34653894    -0.71100
O3490       O  0.00458353  0.70579275  0.34501348    -0.71100
O3491       O  0.55445254  0.70429010  0.34208661    -0.71000
O3492       O  0.55732815  0.79137215  0.34165404    -0.71100
O3493       O  0.56163642  0.74814749  0.36901583    -0.71000
O3494       O  0.54991086  0.74818332  0.31467607    -0.71200
V3495       V  0.00722755  0.74935052  0.34564826     1.35200
V3496       V  0.55489627  0.74792117  0.34191196     1.35200
C3497       C  0.02325483  0.75049883  0.30733761     0.78200
C3498       C  0.03809765  0.74830434  0.38012483     0.78300
C3499       C  0.03310352  0.80681752  0.34424296     0.78200
C3500       C  0.02880164  0.69004762  0.34363101     0.78100
O3501       O  0.75315696  0.49539958  0.31639436    -0.71000
O3502       O  0.74403771  0.99655482  0.37165772    -0.71200
O3503       O  0.74939570  0.95265824  0.34504321    -0.71100
O3504       O  0.74658874  0.54018306  0.34287502    -0.71100
O3505       O  0.69734242  0.53758747  0.33882901    -0.71000
O3506       O  0.69988003  0.95153026  0.34270108    -0.71100
O3507       O  0.69489649  0.49632750  0.36758972    -0.71000
O3508       O  0.70390288  0.99313344  0.31428821    -0.71200
V3509       V  0.74784318  0.49673300  0.34349731     1.35200
V3510       V  0.70041167  0.49405024  0.34056511     1.35200
C3511       C  0.73006604  0.49224776  0.30561038     0.78200
C3512       C  0.71815619  0.49710338  0.37834055     0.78300
C3513       C  0.72494143  0.93720796  0.34425342     0.78200
C3514       C  0.72127091  0.55368067  0.34068270     0.78100
O3515       O  0.75411290  0.74467292  0.31760919    -0.71000
O3516       O  0.74323631  0.74387674  0.37162991    -0.71200
O3517       O  0.74691925  0.70061943  0.34428992    -0.71100
O3518       O  0.75028505  0.78781520  0.34513598    -0.71100
O3519       O  0.70079030  0.78960899  0.34291588    -0.71000
O3520       O  0.69804629  0.70262111  0.33874190    -0.71100
O3521       O  0.69387925  0.74341742  0.36796560    -0.71000
O3522       O  0.70526726  0.74931999  0.31376326    -0.71200
V3523       V  0.74767198  0.74423891  0.34457555     1.35200
V3524       V  0.70040761  0.74613209  0.34090078     1.35200
C3525       C  0.73172865  0.74797513  0.30631572     0.78200
C3526       C  0.71682826  0.74348975  0.37904366     0.78300
C3527       C  0.72195268  0.68678239  0.34121831     0.78200
C3528       C  0.72601851  0.80361688  0.34451525     0.78100
O3529       O  0.02300648  0.50124125  0.46616932    -0.71000
O3530       O  0.01799193  0.99791482  0.41224318    -0.71200
O3531       O  0.02092601  0.95559191  0.44014280    -0.71100
O3532       O  0.01936082  0.54268829  0.43783298    -0.71100
O3533       O  0.56952934  0.54360248  0.43701462    -0.71000
O3534       O  0.57178961  0.95671631  0.43687216    -0.71100
O3535       O  0.56683390  0.50053662  0.40920752    -0.71000
O3536       O  0.57287915  0.99968582  0.46486217    -0.71200
V3537       V  0.02075736  0.49918091  0.43895880     1.35200
V3538       V  0.56939716  0.50005330  0.43662022     1.35200
C3539       C  0.04877907  0.50044282  0.47441079     0.78200
C3540       C  0.03992463  0.49872524  0.40124809     0.78300
C3541       C  0.04577421  0.94093083  0.43847643     0.78200
C3542       C  0.04412382  0.55767364  0.43739518     0.78100
O3543       O  0.02327903  0.74782518  0.46595280    -0.71000
O3544       O  0.01778914  0.75069104  0.41165527    -0.71200
O3545       O  0.02005992  0.70588237  0.43775299    -0.71100
O3546       O  0.02133147  0.79298628  0.43979910    -0.71100
O3547       O  0.57227440  0.79242351  0.43611219    -0.71000
O3548       O  0.57017912  0.70539953  0.43731193    -0.71100
O3549       O  0.56814271  0.74778810  0.40933877    -0.71000
O3550       O  0.57389794  0.74993662  0.46409989    -0.71200
V3551       V  0.02160119  0.74939163  0.43874770     1.35200
V3552       V  0.57020940  0.74891235  0.43675575     1.35200
C3553       C  0.04886587  0.74882696  0.47438634     0.78200
C3554       C  0.04138171  0.74893890  0.40121785     0.78300
C3555       C  0.04476500  0.69080536  0.43747589     0.78200
C3556       C  0.04620721  0.80759072  0.43804447     0.78100
O3557       O  0.68238662  0.49389858  0.46182908    -0.71000
O3558       O  0.68902215  0.99609818  0.40845887    -0.71200
O3559       O  0.68445354  0.95241251  0.43554873    -0.71100
O3560       O  0.68591700  0.53831444  0.43514391    -0.71100
O3561       O  0.73533757  0.53800253  0.43799259    -0.71000
O3562       O  0.73411388  0.95061643  0.43634935    -0.71100
O3563       O  0.73861871  0.49640375  0.40979915    -0.71000
O3564       O  0.73276541  0.99220512  0.46485551    -0.71200
V3565       V  0.68709384  0.99594992  0.43576830     1.35200
V3566       V  0.73469693  0.99408964  0.43768264     1.35200
C3567       C  0.70715032  0.99379247  0.47325711     0.78200
C3568       C  0.71491151  0.99634255  0.40031382     0.78300
C3569       C  0.70877554  0.93667882  0.43557858     0.78200
C3570       C  0.71071286  0.55308218  0.43667598     0.78100
O3571       O  0.73161268  0.74750377  0.46474718    -0.71000
O3572       O  0.73720680  0.74361311  0.41050517    -0.71200
O3573       O  0.73382155  0.78904105  0.43632824    -0.71100
O3574       O  0.73468528  0.70196378  0.43868412    -0.71100
O3575       O  0.68526097  0.70134619  0.43579998    -0.71000
O3576       O  0.68413787  0.78828223  0.43542839    -0.71100
O3577       O  0.68763852  0.74438589  0.40824983    -0.71000
O3578       O  0.68206570  0.74500326  0.46297992    -0.71200
V3579       V  0.73334126  0.74549904  0.43755172     1.35200
V3580       V  0.68571185  0.74479206  0.43566128     1.35200
C3581       C  0.70600652  0.74658951  0.47318038     0.78200
C3582       C  0.71355800  0.74367904  0.40009964     0.78300
C3583       C  0.70876779  0.80349796  0.43556771     0.78200
C3584       C  0.71011324  0.68674575  0.43730831     0.78100
O3585       O  0.99732226  0.48472667  0.06556611    -0.71000
O3586       O  0.49377235  0.49162207  0.11983770    -0.71200
O3587       O  0.53899059  0.48857927  0.09372259    -0.71100
O3588       O  0.95190115  0.48753313  0.09155001    -0.71100
O3589       O  0.95560980  0.94264138  0.09588863    -0.71000
O3590       O  0.54284874  0.94329650  0.09548353    -0.71100
O3591       O  0.99912041  0.94682442  0.12309437    -0.71000
O3592       O  0.49925341  0.93849664  0.06848655    -0.71200
V3593       V  0.99546387  0.48718290  0.09272489     1.35200
V3594       V  0.99911438  0.94502263  0.09577559     1.35200
C3595       C  0.99673327  0.45887657  0.05737932     0.78200
C3596       C  0.99491858  0.46817052  0.13034216     0.78300
C3597       C  0.55407458  0.46387635  0.09418801     0.78200
C3598       C  0.93728222  0.46269088  0.09334446     0.78100
O3599       O  0.00048668  0.81478797  0.06799663    -0.71000
O3600       O  0.49926442  0.81052195  0.12294221    -0.71200
O3601       O  0.54288096  0.81350248  0.09568681    -0.71100
O3602       O  0.95619520  0.81236115  0.09478362    -0.71100
O3603       O  0.95593186  0.76266666  0.09429275    -0.71000
O3604       O  0.54371636  0.76388478  0.09367017    -0.71100
O3605       O  0.00096790  0.75964854  0.12035677    -0.71000
O3606       O  0.49969103  0.76509281  0.06687352    -0.71200
V3607       V  0.99970336  0.81115588  0.09531773     1.35200
V3608       V  0.99945902  0.76352629  0.09330073     1.35200
C3609       C  0.99846109  0.79083872  0.05778815     0.78200
C3610       C  0.99988648  0.78326732  0.13081328     0.78300
C3611       C  0.55813062  0.78896748  0.09468529     0.78200
C3612       C  0.94120412  0.78759379  0.09451112     0.78100
O3613       O  0.74364313  0.48393531  0.06437065    -0.71000
O3614       O  0.74852409  0.48997354  0.11850942    -0.71200
O3615       O  0.78961494  0.48615078  0.08997814    -0.71100
O3616       O  0.70260592  0.48759357  0.09295157    -0.71100
O3617       O  0.70407957  0.94496211  0.09421255    -0.71000
O3618       O  0.79108934  0.94190614  0.09435249    -0.71100
O3619       O  0.74780533  0.94621796  0.12156362    -0.71000
O3620       O  0.74754184  0.94095967  0.06705371    -0.71200
V3621       V  0.74610305  0.48594043  0.09148397     1.35200
V3622       V  0.74763203  0.94446246  0.09427605     1.35200
C3623       C  0.74409412  0.45820111  0.05606614     0.78200
C3624       C  0.74763904  0.46631192  0.12885953     0.78300
C3625       C  0.80417915  0.46128535  0.09172900     0.78200
C3626       C  0.68741806  0.46294558  0.09342982     0.78100
O3627       O  0.74978172  0.81753316  0.06773974    -0.71000
O3628       O  0.75092889  0.81100386  0.12243658    -0.71200
O3629       O  0.79361495  0.81378331  0.09466557    -0.71100
O3630       O  0.70647160  0.81504410  0.09564206    -0.71100
O3631       O  0.70576340  0.76550496  0.09298157    -0.71000
O3632       O  0.79280454  0.76419767  0.09249840    -0.71100
O3633       O  0.74991834  0.76146830  0.11976916    -0.71000
O3634       O  0.74879783  0.76816543  0.06571800    -0.71200
V3635       V  0.75009665  0.81343327  0.09507169     1.35200
V3636       V  0.74929719  0.76585500  0.09278486     1.35200
C3637       C  0.74974318  0.79373334  0.05729859     0.78200
C3638       C  0.75103327  0.78492670  0.13034368     0.78300
C3639       C  0.80804370  0.78875524  0.09357274     0.78200
C3640       C  0.69127692  0.79045495  0.09440216     0.78100
O3641       O  0.00253945  0.95917505  0.21733162    -0.71000
O3642       O  0.49747301  0.95007815  0.16286479    -0.71200
O3643       O  0.54334329  0.95403114  0.18833169    -0.71100
O3644       O  0.95608107  0.95579394  0.19168559    -0.71100
O3645       O  0.95314877  0.50068763  0.18695691    -0.71000
O3646       O  0.54032054  0.50326087  0.18541969    -0.71100
O3647       O  0.99559492  0.49750433  0.15913958    -0.71000
O3648       O  0.49819395  0.50654985  0.21351155    -0.71200
V3649       V  0.99962026  0.95624712  0.19009389     1.35200
V3650       V  0.99676698  0.50096816  0.18632032     1.35200
C3651       C  0.00115529  0.48350211  0.22437363     0.78200
C3652       C  0.99516037  0.47129467  0.15139911     0.78300
C3653       C  0.55580073  0.47879432  0.18576206     0.78200
C3654       C  0.93900268  0.47562842  0.18909968     0.78100
O3655       O  0.00511369  0.74301291  0.21327635    -0.71000
O3656       O  0.50001953  0.75561425  0.15982467    -0.71200
O3657       O  0.54573259  0.75144193  0.18521964    -0.71100
O3658       O  0.95869008  0.74758280  0.18770103    -0.71100
O3659       O  0.95799851  0.79705440  0.19059987    -0.71000
O3660       O  0.54502852  0.80060994  0.18983525    -0.71100
O3661       O  0.00057892  0.80305899  0.16291856    -0.71000
O3662       O  0.50302119  0.79446303  0.21766752    -0.71200
V3663       V  0.00224138  0.74937483  0.18634836     1.35200
V3664       V  0.00155829  0.79675055  0.19002355     1.35200
C3665       C  0.00547497  0.76575844  0.22451738     0.78200
C3666       C  0.00005298  0.78004505  0.15186801     0.78300
C3667       C  0.56019091  0.77632920  0.18718166     0.78200
C3668       C  0.94344550  0.77211416  0.18919124     0.78100
O3669       O  0.74684996  0.95739379  0.21550666    -0.71000
O3670       O  0.75116134  0.95071977  0.16121912    -0.71200
O3671       O  0.79286651  0.95458979  0.18963295    -0.71100
O3672       O  0.70581654  0.95365746  0.18698669    -0.71100
O3673       O  0.70444409  0.50047098  0.18418182    -0.71000
O3674       O  0.79124503  0.49770095  0.18536804    -0.71100
O3675       O  0.74855585  0.49512951  0.15773258    -0.71000
O3676       O  0.74670471  0.50292830  0.21199318    -0.71200
V3677       V  0.74928556  0.95504981  0.18831183     1.35200
V3678       V  0.74777810  0.49806939  0.18488443     1.35200
C3679       C  0.74399551  0.47960342  0.22257422     0.78200
C3680       C  0.74830877  0.46906445  0.14982884     0.78300
C3681       C  0.80763779  0.97943611  0.18826509     0.78200
C3682       C  0.69095264  0.97843904  0.18616027     0.78100
O3683       O  0.74770608  0.74261150  0.21219483    -0.71000
O3684       O  0.75267437  0.75471399  0.15845569    -0.71200
O3685       O  0.79419001  0.74710529  0.18664470    -0.71100
O3686       O  0.70711810  0.75060252  0.18392016    -0.71100
O3687       O  0.70878897  0.79943638  0.18966728    -0.71000
O3688       O  0.79567373  0.79655488  0.18960029    -0.71100
O3689       O  0.75217461  0.80400503  0.16257546    -0.71000
O3690       O  0.75170354  0.79164670  0.21677486    -0.71200
V3691       V  0.75058072  0.74971377  0.18540031     1.35200
V3692       V  0.75215678  0.79696734  0.18959793     1.35200
C3693       C  0.74839806  0.76502265  0.22364797     0.78200
C3694       C  0.75214708  0.78126255  0.15130877     0.78300
C3695       C  0.80983328  0.77141142  0.18816168     0.78200
C3696       C  0.69313498  0.77561998  0.18654486     0.78100
O3697       O  0.49778316  0.48344710  0.96549849    -0.71000
O3698       O  0.99334447  0.48908782  0.91119058    -0.71200
O3699       O  0.95186417  0.48652259  0.93975183    -0.71100
O3700       O  0.53901494  0.48575243  0.93689928    -0.71100
O3701       O  0.54301873  0.94231655  0.93707458    -0.71000
O3702       O  0.95580960  0.94374571  0.93687398    -0.71100
O3703       O  0.49956823  0.94541705  0.90971233    -0.71000
O3704       O  0.99920936  0.94109335  0.96440428    -0.71200
V3705       V  0.99543517  0.48534272  0.93828359     1.35200
V3706       V  0.99935412  0.94485652  0.93716157     1.35200
C3707       C  0.99685393  0.45803592  0.97383916     0.78200
C3708       C  0.99845062  0.97268474  0.90174211     0.78300
C3709       C  0.94092186  0.96843160  0.93848944     0.78200
C3710       C  0.55770293  0.96727835  0.93752264     0.78100
O3711       O  0.99292709  0.76284408  0.96606516    -0.71000
O3712       O  0.49610444  0.75640442  0.91124495    -0.71200
O3713       O  0.54011524  0.76103125  0.93787441    -0.71100
O3714       O  0.95111964  0.75982846  0.93778620    -0.71100
O3715       O  0.95156358  0.80953824  0.93780336    -0.71000
O3716       O  0.53855076  0.81066456  0.93649831    -0.71100
O3717       O  0.99313102  0.80587818  0.90947202    -0.71000
O3718       O  0.49431204  0.81232768  0.96354343    -0.64800
V3719       V  0.99462555  0.76062049  0.93885068     1.35200
V3720       V  0.99494852  0.80814589  0.93671998     1.35200
C3721       C  0.99504624  0.78857346  0.97431189     0.78200
C3722       C  0.99474690  0.78001520  0.90133549     0.78300
C3723       C  0.55415756  0.78631361  0.93697403     0.78200
C3724       C  0.93651266  0.78482398  0.93766397     0.78100
O3725       O  0.74977329  0.94150184  0.96325742    -0.71000
O3726       O  0.74944987  0.94693875  0.90875582    -0.71200
O3727       O  0.79316182  0.94437544  0.93578217    -0.71100
O3728       O  0.70611296  0.94376799  0.93621986    -0.71100
O3729       O  0.70148001  0.48559443  0.93593094    -0.71000
O3730       O  0.78856760  0.48659704  0.93867581    -0.71100
O3731       O  0.74700427  0.48876505  0.91013733    -0.71000
O3732       O  0.74280905  0.48360770  0.96437642    -0.71200
V3733       V  0.74963863  0.94509784  0.93603467     1.35200
V3734       V  0.74501214  0.48517734  0.93723189     1.35200
C3735       C  0.74399908  0.45803744  0.97278085     0.78200
C3736       C  0.74646496  0.46493560  0.89983807     0.78300
C3737       C  0.80372303  0.46202498  0.93717851     0.78200
C3738       C  0.68695627  0.46053509  0.93558725     0.78100
O3739       O  0.74690133  0.81590531  0.96239160    -0.71000
O3740       O  0.74529771  0.80825962  0.90784327    -0.71200
O3741       O  0.70231437  0.81282301  0.93545708    -0.71100
O3742       O  0.78924302  0.81166782  0.93471277    -0.71100
O3743       O  0.78863687  0.76220492  0.93785500    -0.71000
O3744       O  0.70164325  0.76319563  0.93716724    -0.71100
O3745       O  0.74562714  0.75873552  0.91061583    -0.71000
O3746       O  0.74471018  0.76662561  0.96469266    -0.71200
V3747       V  0.74582665  0.81123817  0.93513693     1.35200
V3748       V  0.74513810  0.76368851  0.93757788     1.35200
C3749       C  0.74673730  0.79235663  0.97295815     0.78200
C3750       C  0.74561634  0.78208049  0.90000405     0.78300
C3751       C  0.68716144  0.78817635  0.93612355     0.78200
C3752       C  0.80372075  0.78677607  0.93626686     0.78100
O3753       O  0.01898657  0.99829525  0.56660983    -0.71000
O3754       O  0.01122784  0.50252769  0.61992039    -0.71200
O3755       O  0.01459644  0.54362621  0.59127704    -0.71100
O3756       O  0.01685764  0.95664616  0.59515033    -0.71100
O3757       O  0.56628237  0.95971408  0.59825972    -0.71000
O3758       O  0.56442773  0.54604688  0.59516157    -0.71100
O3759       O  0.55994945  0.00486444  0.62390985    -0.71000
O3760       O  0.57161314  0.50108629  0.56919720    -0.71200
V3761       V  0.01730906  0.50041927  0.59291221     1.35200
V3762       V  0.56529931  0.50281781  0.59637561     1.35200
C3763       C  0.04751216  0.49971104  0.55813993     0.78200
C3764       C  0.03410407  0.50441515  0.63095902     0.78300
C3765       C  0.03859743  0.55966158  0.59240441     0.78200
C3766       C  0.04217858  0.94318864  0.59772489     0.78100
O3767       O  0.57012502  0.75227925  0.56870374    -0.71000
O3768       O  0.56112780  0.74958935  0.62308597    -0.71200
O3769       O  0.56401327  0.70777764  0.59491972    -0.71100
O3770       O  0.56708871  0.79415494  0.59735648    -0.71100
O3771       O  0.01759810  0.79610318  0.59396047    -0.71000
O3772       O  0.01426289  0.70930315  0.59199782    -0.71100
O3773       O  0.01138877  0.75174793  0.62011355    -0.71000
O3774       O  0.02012251  0.75330083  0.56586385    -0.71200
V3775       V  0.56464155  0.75100050  0.59589858     1.35200
V3776       V  0.01679375  0.75262979  0.59304662     1.35200
C3777       C  0.04622627  0.75227660  0.55803840     0.78200
C3778       C  0.03455920  0.75052331  0.63093822     0.78300
C3779       C  0.03840479  0.69343085  0.59291667     0.78200
C3780       C  0.04272578  0.80987449  0.59664968     0.78100
O3781       O  0.68367537  0.99670869  0.56698809    -0.71000
O3782       O  0.68750296  0.49538071  0.62081567    -0.71200
O3783       O  0.68389864  0.53899655  0.59377361    -0.71100
O3784       O  0.68562125  0.95261282  0.59383262    -0.71100
O3785       O  0.73533915  0.95222508  0.59360526    -0.71000
O3786       O  0.73329959  0.54002130  0.59036734    -0.71100
O3787       O  0.73800617  0.99749199  0.61973870    -0.71000
O3788       O  0.73183234  0.49425079  0.56441705    -0.71200
V3789       V  0.68583149  0.49543833  0.59345456     1.35200
V3790       V  0.73346117  0.49651075  0.59164767     1.35200
C3791       C  0.70620544  0.49423691  0.55596019     0.78200
C3792       C  0.71319517  0.49745095  0.62910642     0.78300
C3793       C  0.70829069  0.55436708  0.59204481     0.78200
C3794       C  0.71036679  0.93758131  0.59371916     0.78100
O3795       O  0.68169454  0.74463031  0.56684411    -0.71000
O3796       O  0.68580320  0.74766507  0.62150617    -0.71200
O3797       O  0.68393931  0.78979153  0.59322617    -0.71100
O3798       O  0.68353199  0.70261259  0.59510337    -0.71100
O3799       O  0.73295600  0.70241454  0.59176291    -0.71000
O3800       O  0.73365863  0.78945167  0.59362264    -0.71100
O3801       O  0.73536311  0.74472977  0.61985375    -0.71000
O3802       O  0.73126308  0.74737580  0.56547766    -0.71200
V3803       V  0.68466061  0.74617495  0.59414565     1.35200
V3804       V  0.73233264  0.74595606  0.59270960     1.35200
C3805       C  0.70584582  0.74614220  0.55683538     0.78200
C3806       C  0.71139627  0.74635429  0.62996780     0.78300
C3807       C  0.70892698  0.80445955  0.59344013     0.78200
C3808       C  0.70817459  0.68765114  0.59338222     0.78100
C3809       C  0.71012190  0.90351811  0.59361694    -0.04600
C3810       C  0.69545565  0.88736975  0.57866123    -0.01700
C3811       C  0.69511028  0.85502434  0.57858098     0.03300
C3812       C  0.70932730  0.83851905  0.59349319    -0.04600
C3813       C  0.72450065  0.85465873  0.60826037    -0.01700
C3814       C  0.72494421  0.88700856  0.60830023     0.03300
C3815       C  0.68201269  0.90400495  0.56281674     0.38000
C3816       C  0.73917092  0.83797654  0.62366305     0.38000
C3817       C  0.74022320  0.90332538  0.62367171     0.36400
C3818       C  0.68129549  0.83872082  0.56266811     0.36400
N3819       N  0.75242312  0.91636145  0.63591785    -0.38400
N3820       N  0.67025052  0.82573656  0.54997993    -0.38400
N3821       N  0.75084395  0.82465421  0.63595023    -0.37900
N3822       N  0.67140344  0.91721035  0.55011390    -0.37900
C3823       C  0.70803203  0.65354168  0.59304738    -0.04600
C3824       C  0.72289201  0.63753804  0.57808723    -0.01700
C3825       C  0.72270780  0.60519742  0.57766033     0.03300
C3826       C  0.70772308  0.58847604  0.59221026    -0.04600
C3827       C  0.69284261  0.60447102  0.60717647    -0.01700
C3828       C  0.69308339  0.63683087  0.60762561     0.03300
C3829       C  0.73767612  0.65437175  0.56277114     0.38000
C3830       C  0.67833515  0.58763393  0.62259345     0.38000
C3831       C  0.67921896  0.65287196  0.62363357     0.36400
C3832       C  0.73707528  0.58913974  0.56183318     0.36400
N3833       N  0.66833214  0.66562160  0.63647406    -0.38400
N3834       N  0.74844415  0.57631296  0.54918817    -0.38400
N3835       N  0.66682562  0.57418636  0.63489970    -0.37900
N3836       N  0.74944159  0.66786316  0.55057912    -0.37900
C3837       C  0.04393170  0.84393983  0.59887301    -0.04600
C3838       C  0.01849484  0.86013580  0.60635126    -0.01700
C3839       C  0.01848811  0.89243791  0.60676873     0.03300
C3840       C  0.04381419  0.90909974  0.59959950    -0.04600
C3841       C  0.57084582  0.89309023  0.59421782    -0.01700
C3842       C  0.57096912  0.86080556  0.59399089     0.03300
C3843       C  0.99290165  0.84371193  0.61473232     0.38000
C3844       C  0.59879695  0.90923368  0.58934775     0.38000
C3845       C  0.59911754  0.84497016  0.58917941     0.36400
C3846       C  0.99305817  0.90835275  0.61573883     0.36400
N3847       N  0.62162726  0.83216985  0.58574562    -0.38400
N3848       N  0.97292198  0.92096903  0.62307690    -0.38400
N3849       N  0.62127284  0.92201704  0.58579409    -0.37900
N3850       N  0.97258875  0.83069476  0.62156526    -0.37900
C3851       C  0.03759175  0.59384560  0.59099592    -0.04600
C3852       C  0.01029066  0.61028090  0.59492970    -0.01700
C3853       C  0.01027162  0.64260339  0.59507397     0.03300
C3854       C  0.03763074  0.65918235  0.59149414    -0.04600
C3855       C  0.56529680  0.64290478  0.58666777    -0.01700
C3856       C  0.56521722  0.61066465  0.58631210     0.03300
C3857       C  0.98193241  0.59429296  0.59915630     0.38000
C3858       C  0.59347344  0.65874062  0.58174126     0.38000
C3859       C  0.59292225  0.59486322  0.58034679     0.36400
C3860       C  0.98178870  0.65840199  0.59927835     0.36400
N3861       N  0.61508994  0.58250597  0.57560457    -0.38400
N3862       N  0.95893766  0.67073025  0.60257018    -0.38400
N3863       N  0.61608293  0.67113959  0.57794132    -0.37900
N3864       N  0.95920468  0.58176062  0.60249749    -0.37900
C3865       C  0.90250129  0.78527359  0.93726327    -0.04600
C3866       C  0.88610111  0.80437401  0.95001226    -0.01700
C3867       C  0.85382800  0.80494202  0.94959934     0.03300
C3868       C  0.83765782  0.78649989  0.93641483    -0.04600
C3869       C  0.85398744  0.76792790  0.92337488    -0.01700
C3870       C  0.88628620  0.76717574  0.92385425     0.03300
C3871       C  0.90235687  0.82282088  0.96399952     0.38000
C3872       C  0.83760376  0.75080338  0.90879419     0.38000
C3873       C  0.90279638  0.74877643  0.90995186     0.36400
C3874       C  0.83721088  0.82391926  0.96314227     0.36400
N3875       N  0.91590480  0.73414652  0.89881830    -0.38400
N3876       N  0.82388270  0.83900304  0.97392542    -0.38400
N3877       N  0.82454783  0.73737963  0.89706700    -0.37900
N3878       N  0.91533409  0.83752873  0.97514182    -0.37900
C3879       C  0.58818228  0.78737223  0.93637129    -0.04600
C3880       C  0.60451028  0.76974355  0.92278821    -0.01700
C3881       C  0.63685671  0.77018385  0.92257226     0.03300
C3882       C  0.65314571  0.78849952  0.93581037    -0.04600
C3883       C  0.63679349  0.80684586  0.94894104    -0.01700
C3884       C  0.60452991  0.80610232  0.94931501     0.03300
C3885       C  0.58803245  0.75204149  0.90853352     0.38000
C3886       C  0.65310211  0.82574708  0.96264082     0.38000
C3887       C  0.58841058  0.82368036  0.96371660     0.36400
C3888       C  0.65333851  0.75264657  0.90823595     0.36400
N3889       N  0.57625812  0.83781206  0.97546701    -0.38400
N3890       N  0.66646918  0.73876279  0.89674723    -0.38400
N3891       N  0.66580795  0.84092945  0.97364031    -0.37900
N3892       N  0.57488469  0.73808526  0.89709283    -0.37900
C3893       C  0.90277142  0.46195382  0.93808309    -0.04600
C3894       C  0.88617106  0.47551103  0.95325763    -0.01700
C3895       C  0.85379816  0.47576787  0.95293006     0.03300
C3896       C  0.83778189  0.46221215  0.93750815    -0.04600
C3897       C  0.85849204  0.95609016  0.92227133    -0.01700
C3898       C  0.89082670  0.95567393  0.92261080     0.03300
C3899       C  0.90237628  0.48783687  0.96967229     0.38000
C3900       C  0.84228846  0.94400390  0.90578167     0.38000
C3901       C  0.90758794  0.94298370  0.90651082     0.36400
C3902       C  0.83696155  0.48882777  0.96887968     0.36400
N3903       N  0.92092749  0.93290142  0.89365078    -0.38400
N3904       N  0.82351137  0.49913420  0.98162532    -0.38400
N3905       N  0.82936092  0.93448000  0.89260260    -0.37900
N3906       N  0.91532557  0.49743111  0.98282443    -0.37900
C3907       C  0.58772301  0.46029858  0.93582767    -0.04600
C3908       C  0.60398606  0.47894781  0.92278829    -0.01700
C3909       C  0.63634071  0.47863775  0.92248926     0.03300
C3910       C  0.65282730  0.46006792  0.93543457    -0.04600
C3911       C  0.64088911  0.94947934  0.94999558    -0.01700
C3912       C  0.60854020  0.94907745  0.95012811     0.03300
C3913       C  0.58745417  0.49774792  0.90918097     0.38000
C3914       C  0.65764263  0.93159107  0.96397200     0.38000
C3915       C  0.59245541  0.93047159  0.96407478     0.36400
C3916       C  0.65263827  0.49656464  0.90829953     0.36400
N3917       N  0.57958827  0.91568878  0.97519993    -0.38400
N3918       N  0.66565077  0.51068854  0.89690790    -0.38400
N3919       N  0.67099095  0.91743893  0.97517808    -0.37900
N3920       N  0.57429675  0.51272589  0.89830710    -0.37900
C3921       C  0.90924646  0.77172443  0.18890293    -0.04600
C3922       C  0.89294265  0.79203606  0.17689469    -0.01700
C3923       C  0.86059621  0.79143128  0.17639403     0.03300
C3924       C  0.84404307  0.77079067  0.18806744    -0.04600
C3925       C  0.86034379  0.75018531  0.19986001    -0.01700
C3926       C  0.89273141  0.75072189  0.20031678     0.03300
C3927       C  0.90940913  0.81300142  0.16451172     0.38000
C3928       C  0.84382687  0.72899967  0.21203172     0.38000
C3929       C  0.90903491  0.73046922  0.21319126     0.36400
C3930       C  0.84440315  0.81120585  0.16315140     0.36400
N3931       N  0.92213108  0.71443240  0.22348705    -0.38400
N3932       N  0.83151963  0.82683446  0.15250840    -0.38400
N3933       N  0.83067152  0.71207392  0.22174116    -0.37900
N3934       N  0.92246062  0.82976463  0.15463483    -0.37900
C3935       C  0.65912416  0.77693305  0.18620461    -0.04600
C3936       C  0.64256885  0.76216498  0.17145463    -0.01700
C3937       C  0.61025354  0.76216736  0.17166946     0.03300
C3938       C  0.59419128  0.77700508  0.18660462    -0.04600
C3939       C  0.61073680  0.79247227  0.20106615    -0.01700
C3940       C  0.64302682  0.79263099  0.20079542     0.03300
C3941       C  0.65874319  0.74811104  0.15555937     0.38000
C3942       C  0.59459064  0.80716323  0.21675051     0.38000
C3943       C  0.65961060  0.80813887  0.21598119     0.36400
C3944       C  0.59355841  0.74776808  0.15611918     0.36400
N3945       N  0.67283064  0.82052922  0.22807171    -0.38400
N3946       N  0.58026995  0.73638084  0.14367906    -0.38400
N3947       N  0.58170894  0.81880766  0.22927564    -0.37900
N3948       N  0.67164068  0.73710291  0.14281713    -0.37900
C3949       C  0.83959337  0.47211811  0.18737870    -0.04600
C3950       C  0.85615770  0.48887763  0.17350418    -0.01700
C3951       C  0.88846369  0.49021725  0.17419482     0.03300
C3952       C  0.90477728  0.47442088  0.18861866    -0.04600
C3953       C  0.89030521  0.96283430  0.20297515    -0.01700
C3954       C  0.85795420  0.96224824  0.20240021     0.03300
C3955       C  0.84002754  0.50364840  0.15788966     0.38000
C3956       C  0.90622729  0.94593421  0.21777418     0.38000
C3957       C  0.84125049  0.94424697  0.21636579     0.36400
C3958       C  0.90489577  0.50704682  0.15954120     0.36400
N3959       N  0.82789801  0.92987482  0.22747990    -0.38400
N3960       N  0.91792665  0.52048741  0.14783733    -0.38400
N3961       N  0.91879650  0.93252595  0.22966396    -0.37900
N3962       N  0.82716650  0.51522198  0.14537507    -0.37900
C3963       C  0.65475145  0.47765234  0.18424625    -0.04600
C3964       C  0.64038918  0.96156815  0.17240969    -0.01700
C3965       C  0.60803188  0.96166657  0.17269592     0.03300
C3966       C  0.58981382  0.47938588  0.18461582    -0.04600
C3967       C  0.60685552  0.49833403  0.19708238    -0.01700
C3968       C  0.63911582  0.49733480  0.19698854     0.03300
C3969       C  0.65657145  0.94501047  0.15749971     0.38000
C3970       C  0.59135539  0.51823530  0.21056249     0.38000
C3971       C  0.65619125  0.51580763  0.21059329     0.36400
C3972       C  0.59116238  0.94488133  0.15819571     0.36400
N3973       N  0.66981746  0.53050809  0.22143469    -0.38400
N3974       N  0.57773169  0.93158631  0.14657748    -0.38400
N3975       N  0.57945848  0.53436491  0.22138487    -0.37900
N3976       N  0.66949605  0.93197522  0.14554013    -0.37900
C3977       C  0.74944743  0.79422247  0.99452270    -0.04600
C3978       C  0.76084556  0.76881790  0.00497239    -0.01700
C3979       C  0.76204750  0.76938236  0.02517917     0.03300
C3980       C  0.75109194  0.79501313  0.03568169    -0.04600
C3981       C  0.74163687  0.82123759  0.02527078    -0.01700
C3982       C  0.74128414  0.82100585  0.00492316     0.03300
C3983       C  0.77272242  0.74204100  0.99507009     0.38000
C3984       C  0.73186633  0.84865346  0.03531647     0.38000
C3985       C  0.73259538  0.84869477  0.99489224     0.36400
C3986       C  0.77598860  0.74360470  0.03498340     0.36400
N3987       N  0.72603737  0.87105319  0.98705151    -0.38400
N3988       N  0.78720879  0.72305247  0.04269241    -0.38400
N3989       N  0.72414832  0.87066176  0.04320150    -0.37900
N3990       N  0.78218191  0.72061838  0.98729895    -0.37900
C3991       C  0.74298056  0.45634268  0.03478045    -0.04600
C3992       C  0.72020090  0.47247354  0.02457576    -0.01700
C3993       C  0.72015356  0.47240322  0.00436004     0.03300
C3994       C  0.74306625  0.45644900  0.99408975    -0.04600
C3995       C  0.76548206  0.94293952  0.00513921    -0.01700
C3996       C  0.76531688  0.94297471  0.02539369     0.03300
C3997       C  0.69626392  0.48859714  0.03489634     0.38000
C3998       C  0.78572460  0.92220475  0.99498542     0.38000
C3999       C  0.78598837  0.92291542  0.03567704     0.36400
C4000       C  0.69599312  0.48820656  0.99412039     0.36400
N4001       N  0.80259797  0.90706809  0.04389947    -0.38400
N4002       N  0.67669308  0.50072659  0.98594093    -0.38400
N4003       N  0.80186708  0.90564056  0.98689851    -0.37900
N4004       N  0.67718325  0.50140338  0.04315434    -0.37900
C4005       C  0.90710761  0.78781799  0.09427667    -0.04600
C4006       C  0.89116399  0.80688415  0.08133404    -0.01700
C4007       C  0.85883956  0.80716363  0.08109569     0.03300
C4008       C  0.84209523  0.78823753  0.09369947    -0.04600
C4009       C  0.85799947  0.76900803  0.10654660    -0.01700
C4010       C  0.89033119  0.76887674  0.10688174     0.03300
C4011       C  0.90797993  0.82528272  0.06763145     0.38000
C4012       C  0.84110956  0.75008302  0.11993964     0.38000
C4013       C  0.90627477  0.75003983  0.12074337     0.36400
C4014       C  0.84280979  0.82606290  0.06730190     0.36400
N4015       N  0.91897041  0.73506487  0.13183046    -0.38400
N4016       N  0.82997982  0.84102409  0.05627029    -0.38400
N4017       N  0.82763573  0.73500059  0.13061930    -0.37900
N4018       N  0.92140783  0.83980015  0.05663332    -0.37900
C4019       C  0.65719708  0.79070447  0.09439507    -0.04600
C4020       C  0.64093834  0.77738283  0.07900298    -0.01700
C4021       C  0.60860188  0.77676946  0.07913519     0.03300
C4022       C  0.59219025  0.78963983  0.09460265    -0.04600
C4023       C  0.60841510  0.80331461  0.10989619    -0.01700
C4024       C  0.64078717  0.80376372  0.10982120     0.03300
C4025       C  0.65750735  0.76528611  0.06265062     0.38000
C4026       C  0.59180715  0.81601401  0.12605108     0.38000
C4027       C  0.65720641  0.81664641  0.12598057     0.36400
C4028       C  0.59215633  0.76384246  0.06299479     0.36400
N4029       N  0.67028554  0.82679952  0.13891569    -0.38400
N4030       N  0.57897210  0.75364131  0.05011678    -0.38400
N4031       N  0.57854761  0.82606554  0.13895316    -0.37900
N4032       N  0.67078882  0.75580418  0.04959091    -0.37900
C4033       C  0.99669079  0.79225264  0.03645345    -0.04600
C4034       C  0.01985573  0.80683045  0.02568755    -0.01700
C4035       C  0.01917865  0.80596441  0.00542017     0.03300
C4036       C  0.99519612  0.79071259  0.99567902    -0.04600
C4037       C  0.48175007  0.76587904  0.00632546    -0.01700
C4038       C  0.48232863  0.76646877  0.02656759     0.03300
C4039       C  0.04526661  0.82141922  0.03546140     0.38000
C4040       C  0.46700178  0.74028424  0.99674423     0.38000
C4041       C  0.46720689  0.74199547  0.03697233     0.36400
C4042       C  0.04423213  0.81921583  0.99465008     0.36400
N4043       N  0.45501002  0.72252105  0.04519483    -0.38400
N4044       N  0.06445480  0.82962346  0.98618135    -0.38400
N4045       N  0.45519475  0.71984980  0.98919373    -0.37900
N4046       N  0.06559239  0.83295181  0.04326796    -0.37900
C4047       C  0.83824369  0.46097386  0.09188169    -0.04600
C4048       C  0.85423866  0.44682188  0.10706493    -0.01700
C4049       C  0.88655485  0.44766216  0.10764627     0.03300
C4050       C  0.90322227  0.46216872  0.09287568    -0.04600
C4051       C  0.88988343  0.98079338  0.07870660    -0.01700
C4052       C  0.85754813  0.98029535  0.07823765     0.03300
C4053       C  0.83744913  0.43221801  0.12247604     0.38000
C4054       C  0.90667844  0.99595200  0.06351610     0.38000
C4055       C  0.84143894  0.99437296  0.06237831     0.36400
C4056       C  0.90258027  0.43476746  0.12392932     0.36400
N4057       N  0.82853522  0.00533649  0.04966622    -0.38400
N4058       N  0.91532274  0.42465365  0.13697677    -0.38400
N4059       N  0.92010441  0.00796084  0.05138567    -0.37900
N4060       N  0.82408425  0.42051428  0.13474974    -0.37900
C4061       C  0.58819107  0.46404999  0.09390469    -0.04600
C4062       C  0.60713433  0.95369035  0.08022809    -0.01700
C4063       C  0.63946364  0.95440448  0.07983781     0.03300
C4064       C  0.65328408  0.46335964  0.09364767    -0.04600
C4065       C  0.63722942  0.48224697  0.10670586    -0.01700
C4066       C  0.60486071  0.48264401  0.10680139     0.03300
C4067       C  0.59057652  0.93713339  0.06547794     0.38000
C4068       C  0.65396622  0.50047344  0.12057491     0.38000
C4069       C  0.58873418  0.50157406  0.12059345     0.36400
C4070       C  0.65581738  0.93903519  0.06449827     0.36400
N4071       N  0.57586779  0.51667678  0.13158820    -0.38400
N4072       N  0.66887865  0.92699894  0.05219380    -0.38400
N4073       N  0.66728780  0.51493511  0.13168683    -0.37900
N4074       N  0.57734383  0.92402918  0.05368939    -0.37900
C4075       C  0.99794501  0.45672464  0.03602577    -0.04600
C4076       C  0.02003813  0.47369494  0.02571603    -0.01700
C4077       C  0.02001690  0.47360959  0.00548123     0.03300
C4078       C  0.99798134  0.45642540  0.99521852    -0.04600
C4079       C  0.48242518  0.94004975  0.00618462    -0.01700
C4080       C  0.48221027  0.94008894  0.02646271     0.03300
C4081       C  0.04348245  0.49064164  0.03595381     0.38000
C4082       C  0.46161676  0.92008123  0.99586108     0.38000
C4083       C  0.46121310  0.92022036  0.03662574     0.36400
C4084       C  0.04323697  0.49077308  0.99522345     0.36400
N4085       N  0.44441837  0.90440041  0.04475826    -0.38400
N4086       N  0.06176188  0.50445028  0.98704631    -0.38400
N4087       N  0.44505831  0.90413231  0.98763684    -0.37900
N4088       N  0.06220628  0.50403399  0.04415985    -0.37900
C4089       C  0.70445449  0.74727190  0.49458399    -0.04600
C4090       C  0.72021319  0.77019785  0.50496992    -0.01700
C4091       C  0.72051947  0.76984592  0.52521754     0.03300
C4092       C  0.70463867  0.74683764  0.53542676    -0.04600
C4093       C  0.68846081  0.72416875  0.52505655    -0.01700
C4094       C  0.68857399  0.72425067  0.50476720     0.03300
C4095       C  0.73567819  0.79466038  0.49480685     0.38000
C4096       C  0.67312771  0.69966169  0.53522511     0.38000
C4097       C  0.67398520  0.69947611  0.49436822     0.36400
C4098       C  0.73684671  0.79360932  0.53555832     0.36400
N4099       N  0.66267976  0.67955729  0.48602788    -0.38400
N4100       N  0.74987712  0.81252850  0.54382938    -0.38400
N4101       N  0.66103698  0.67997160  0.54329255    -0.37900
N4102       N  0.74793942  0.81420628  0.48669606    -0.37900
C4103       C  0.70775626  0.90260391  0.43492970    -0.04600
C4104       C  0.72580320  0.88624338  0.42157198    -0.01700
C4105       C  0.72612354  0.85388320  0.42170932     0.03300
C4106       C  0.70817886  0.83756854  0.43509350    -0.04600
C4107       C  0.68972790  0.85393692  0.44819133    -0.01700
C4108       C  0.68951501  0.88624705  0.44810119     0.03300
C4109       C  0.74338402  0.90268959  0.40728201     0.38000
C4110       C  0.67234589  0.83751987  0.46256738     0.38000
C4111       C  0.67182999  0.90265770  0.46233523     0.36400
C4112       C  0.74442421  0.83739691  0.40775934     0.36400
N4113       N  0.65798183  0.91582873  0.47379166    -0.38400
N4114       N  0.75903132  0.82426102  0.39663100    -0.38400
N4115       N  0.65882302  0.82421782  0.47409757    -0.37900
N4116       N  0.75730100  0.91581973  0.39584155    -0.37900
C4117       C  0.71085159  0.58731296  0.43674755    -0.04600
C4118       C  0.69082915  0.60377861  0.42460756    -0.01700
C4119       C  0.69067617  0.63610682  0.42476837     0.03300
C4120       C  0.71035994  0.65254298  0.43718668    -0.04600
C4121       C  0.73043336  0.63611430  0.44927680    -0.01700
C4122       C  0.73100975  0.60376773  0.44885709     0.03300
C4123       C  0.67130654  0.58760555  0.41114861     0.38000
C4124       C  0.74970676  0.65236834  0.46282174     0.38000
C4125       C  0.75207880  0.58753925  0.46126500     0.36400
C4126       C  0.67099624  0.65235438  0.41148593     0.36400
N4127       N  0.76907313  0.57464685  0.47105619    -0.38400
N4128       N  0.65538372  0.66526213  0.40084153    -0.38400
N4129       N  0.76497478  0.66528715  0.47369106    -0.37900
N4130       N  0.65583423  0.57481914  0.40033078    -0.37900
C4131       C  0.70547142  0.99303361  0.49464960    -0.04600
C4132       C  0.68424619  0.51116539  0.50384125    -0.01700
C4133       C  0.68445631  0.51175837  0.52412173     0.03300
C4134       C  0.70449891  0.49252679  0.53453124    -0.04600
C4135       C  0.72276483  0.97139556  0.52521208    -0.01700
C4136       C  0.72232285  0.97090814  0.50497651     0.03300
C4137       C  0.66454327  0.53200181  0.49346906     0.38000
C4138       C  0.73986492  0.94817578  0.53547200     0.38000
C4139       C  0.73855887  0.94693036  0.49476471     0.36400
C4140       C  0.66504607  0.53336329  0.53418234     0.36400
N4141       N  0.75138444  0.92778438  0.48657202    -0.38400
N4142       N  0.64956641  0.55070646  0.54213274    -0.38400
N4143       N  0.75346802  0.92962603  0.54364475    -0.37900
N4144       N  0.64893584  0.54859954  0.48508200    -0.37900
C4145       C  0.05030096  0.74853823  0.49582600    -0.04600
C4146       C  0.03439717  0.72586057  0.50630219    -0.01700
C4147       C  0.03369905  0.72679710  0.52655664     0.03300
C4148       C  0.04896663  0.75037533  0.53668679    -0.04600
C4149       C  0.56686264  0.77232374  0.52619531    -0.01700
C4150       C  0.56745257  0.77151672  0.50591123     0.03300
C4151       C  0.01907544  0.70114723  0.49623019     0.38000
C4152       C  0.58273411  0.79655199  0.53632435     0.38000
C4153       C  0.58279361  0.79566839  0.49546278     0.36400
C4154       C  0.01785433  0.70289510  0.53702130     0.36400
N4155       N  0.59458242  0.81518809  0.48707852    -0.38400
N4156       N  0.00532266  0.68376497  0.54536035    -0.38400
N4157       N  0.59538003  0.81598825  0.54433690    -0.37900
N4158       N  0.00690081  0.68143231  0.48817956    -0.37900
C4159       C  0.04663345  0.84172098  0.43830643    -0.04600
C4160       C  0.56421226  0.85851710  0.42398577    -0.01700
C4161       C  0.56368178  0.89089119  0.42391423     0.03300
C4162       C  0.04611499  0.90681351  0.43841160    -0.04600
C4163       C  0.03130043  0.89032368  0.45312983    -0.01700
C4164       C  0.03161383  0.85797236  0.45310066     0.03300
C4165       C  0.57985519  0.84221792  0.40873979     0.38000
C4166       C  0.01657644  0.90666651  0.46871289     0.38000
C4167       C  0.01763508  0.84141917  0.46882344     0.36400
C4168       C  0.57780930  0.90742029  0.40823081     0.36400
N4169       N  0.00666788  0.82819481  0.48141286    -0.38400
N4170       N  0.58888827  0.92056609  0.39564628    -0.38400
N4171       N  0.00488936  0.91976774  0.48113310    -0.37900
N4172       N  0.59242743  0.82924189  0.39660912    -0.37900
C4173       C  0.04402416  0.59173899  0.43740167    -0.04600
C4174       C  0.06170977  0.60803045  0.45094603    -0.01700
C4175       C  0.06204126  0.64034087  0.45088973     0.03300
C4176       C  0.04448131  0.65673948  0.43738431    -0.04600
C4177       C  0.52671430  0.64075799  0.42380365    -0.01700
C4178       C  0.52651190  0.60838333  0.42382005     0.03300
C4179       C  0.07837153  0.59155535  0.46561572     0.38000
C4180       C  0.50958991  0.65726120  0.40934675     0.38000
C4181       C  0.50902261  0.59191018  0.40946898     0.36400
C4182       C  0.07950697  0.65673256  0.46529099     0.36400
N4183       N  0.49507081  0.57876390  0.39802720    -0.38400
N4184       N  0.09329218  0.66989552  0.47679793    -0.38400
N4185       N  0.49598022  0.67039905  0.39778052    -0.37900
N4186       N  0.09137719  0.57836668  0.47741773    -0.37900
C4187       C  0.05045430  0.50123731  0.53676540    -0.04600
C4188       C  0.03065762  0.02242190  0.52694587    -0.01700
C4189       C  0.03161125  0.02278686  0.50670201     0.03300
C4190       C  0.05075725  0.50155652  0.49585136    -0.04600
C4191       C  0.57061583  0.48173431  0.50616610    -0.01700
C4192       C  0.57087877  0.48199059  0.52647670     0.03300
C4193       C  0.01258558  0.04517624  0.53705295     0.38000
C4194       C  0.58782723  0.45861969  0.49591874     0.38000
C4195       C  0.59016014  0.46061248  0.53670235     0.36400
C4196       C  0.01483362  0.04613969  0.49634432     0.36400
N4197       N  0.60580257  0.44357718  0.54471613    -0.38400
N4198       N  0.00155021  0.06479834  0.48806193    -0.38400
N4199       N  0.60114151  0.43990028  0.48768277    -0.37900
N4200       N  0.99820515  0.06333245  0.54511604    -0.37900
C4201       C  0.73650445  0.75091905  0.28491276    -0.04600
C4202       C  0.71230470  0.74472437  0.27183876    -0.01700
C4203       C  0.71660216  0.74858086  0.25188903     0.03300
C4204       C  0.74449276  0.76005676  0.24463221    -0.04600
C4205       C  0.76871523  0.76598545  0.25738173    -0.01700
C4206       C  0.76521732  0.76049004  0.27724134     0.03300
C4207       C  0.68298283  0.73348073  0.27860554     0.38000
C4208       C  0.79768160  0.77707980  0.24992889     0.38000
C4209       C  0.79176258  0.76423800  0.28946007     0.36400
C4210       C  0.69204435  0.74082851  0.23875793     0.36400
N4211       N  0.81329700  0.76674820  0.29897129    -0.38400
N4212       N  0.67248538  0.73433706  0.22835459    -0.38400
N4213       N  0.82073029  0.78600199  0.24397346    -0.37900
N4214       N  0.65951590  0.72449726  0.28385666    -0.37900
C4215       C  0.72583498  0.90304469  0.34495474    -0.04600
C4216       C  0.70529380  0.88653199  0.35671983    -0.01700
C4217       C  0.70587534  0.85414032  0.35695968     0.03300
C4218       C  0.72695022  0.83782195  0.34540199    -0.04600
C4219       C  0.74836496  0.85443743  0.33433454    -0.01700
C4220       C  0.74767021  0.88675904  0.33399904     0.03300
C4221       C  0.68432061  0.90283167  0.36921330     0.38000
C4222       C  0.77085021  0.83849546  0.32279646     0.38000
C4223       C  0.76884499  0.90317659  0.32171220     0.36400
C4224       C  0.68570795  0.83766896  0.36984623     0.36400
N4225       N  0.78572347  0.91624128  0.31191427    -0.38400
N4226       N  0.66980806  0.82455414  0.38023973    -0.38400
N4227       N  0.78918246  0.82633710  0.31358599    -0.37900
N4228       N  0.66768495  0.91577911  0.37926174    -0.37900
C4229       C  0.71992024  0.58768839  0.34084777    -0.04600
C4230       C  0.71338183  0.60409756  0.32395924    -0.01700
C4231       C  0.71392344  0.63650516  0.32403417     0.03300
C4232       C  0.72073501  0.65270519  0.34104594    -0.04600
C4233       C  0.72708253  0.63621145  0.35794981    -0.01700
C4234       C  0.72678152  0.60387712  0.35783283     0.03300
C4235       C  0.70750156  0.58757035  0.30631345     0.38000
C4236       C  0.73380298  0.65255857  0.37554354     0.38000
C4237       C  0.73351778  0.58718685  0.37525370     0.36400
C4238       C  0.70916646  0.65309959  0.30635619     0.36400
N4239       N  0.73901107  0.57382914  0.38910898    -0.38400
N4240       N  0.70570991  0.66614675  0.29213693    -0.38400
N4241       N  0.73924042  0.66561912  0.38955538    -0.37900
N4242       N  0.70296552  0.57430535  0.29224666    -0.37900
C4243       C  0.73353991  0.48924072  0.28429682    -0.04600
C4244       C  0.75574732  0.50662907  0.27428768    -0.01700
C4245       C  0.75946883  0.50317206  0.25426468     0.03300
C4246       C  0.74063830  0.48277242  0.24382148    -0.04600
C4247       C  0.71889081  0.96945448  0.25423042    -0.01700
C4248       C  0.71485910  0.97195161  0.27426544     0.03300
C4249       C  0.77427446  0.52892517  0.28443548     0.38000
C4250       C  0.69797400  0.95067508  0.24312721     0.38000
C4251       C  0.69140206  0.95368464  0.28351392     0.36400
C4252       C  0.78335967  0.52012068  0.24449442     0.36400
N4253       N  0.67269540  0.93905112  0.29083959    -0.38400
N4254       N  0.80246128  0.53354955  0.23668319    -0.38400
N4255       N  0.68124113  0.93582702  0.23424287    -0.37900
N4256       N  0.78898246  0.54679373  0.29251043    -0.37900
C4257       C  0.01852438  0.75392085  0.28605807    -0.04600
C4258       C  0.99551791  0.77380338  0.27887931    -0.01700
C4259       C  0.99077091  0.77700996  0.25891740     0.03300
C4260       C  0.00963952  0.76141604  0.24568414    -0.04600
C4261       C  0.53226576  0.74290241  0.25300259    -0.01700
C4262       C  0.53627948  0.73833684  0.27292293     0.03300
C4263       C  0.97734032  0.79215292  0.29195567     0.38000
C4264       C  0.55220847  0.72708368  0.23963380     0.38000
C4265       C  0.55817321  0.71575342  0.27952279     0.36400
C4266       C  0.96569289  0.79571958  0.25200096     0.36400
N4267       N  0.57556180  0.69764306  0.28476080    -0.38400
N4268       N  0.94555844  0.81043045  0.24645175    -0.38400
N4269       N  0.56822169  0.71461813  0.22896986    -0.37900
N4270       N  0.96294461  0.80694475  0.30235637    -0.37900
C4271       C  0.03439665  0.84081516  0.34474804    -0.04600
C4272       C  0.54770119  0.85725668  0.32944266    -0.01700
C4273       C  0.54860013  0.88957447  0.32978709     0.03300
C4274       C  0.03531613  0.90577839  0.34533312    -0.04600
C4275       C  0.02177882  0.88931815  0.36054109    -0.01700
C4276       C  0.02161567  0.85700638  0.36034541     0.03300
C4277       C  0.55893116  0.84082818  0.31278220     0.38000
C4278       C  0.00897781  0.90560891  0.37679896     0.38000
C4279       C  0.00921630  0.84039771  0.37655609     0.36400
C4280       C  0.56227033  0.90599208  0.31390303     0.36400
N4281       N  0.99951651  0.82713415  0.38953071    -0.38400
N4282       N  0.57319402  0.91904904  0.30122665    -0.38400
N4283       N  0.99886209  0.91859937  0.38978838    -0.37900
N4284       N  0.56765050  0.82770353  0.29945186    -0.37900
C4285       C  0.02674122  0.59067714  0.34408712    -0.04600
C4286       C  0.00682743  0.60728005  0.33200629    -0.01700
C4287       C  0.00745253  0.63966788  0.33187726     0.03300
C4288       C  0.02773166  0.65587340  0.34398978    -0.04600
C4289       C  0.54705125  0.63945753  0.35671344    -0.01700
C4290       C  0.54667241  0.60707884  0.35670809     0.03300
C4291       C  0.98637640  0.59106177  0.31916296     0.38000
C4292       C  0.56598540  0.65570897  0.37044421     0.38000
C4293       C  0.56553168  0.59050911  0.37028306     0.36400
C4294       C  0.98800785  0.65629665  0.31868374     0.36400
N4295       N  0.58047518  0.57732149  0.38116502    -0.38400
N4296       N  0.97257843  0.66961489  0.30813734    -0.38400
N4297       N  0.58092807  0.66862532  0.38149225    -0.37900
N4298       N  0.97007957  0.57811111  0.30891068    -0.37900
C4299       C  0.00497891  0.48720415  0.24589495    -0.04600
C4300       C  0.51453077  0.51574092  0.25419684    -0.01700
C4301       C  0.52109130  0.51812713  0.27404696     0.03300
C4302       C  0.01557840  0.49309686  0.28633147    -0.04600
C4303       C  0.00704177  0.96579457  0.27936243    -0.01700
C4304       C  0.00218181  0.96294525  0.25938924     0.03300
C4305       C  0.51709243  0.54307663  0.24257926     0.38000
C4306       C  0.00006236  0.94023787  0.29187065     0.38000
C4307       C  0.99162049  0.93375257  0.25196911     0.36400
C4308       C  0.53252050  0.54669074  0.28191109     0.36400
N4309       N  0.98341763  0.91027357  0.24622876    -0.38400
N4310       N  0.54181050  0.56943117  0.28813657    -0.38400
N4311       N  0.99411387  0.91986213  0.30174720    -0.37900
N4312       N  0.51882020  0.56515486  0.23351927    -0.37900
C4313       C  0.90346508  0.76911673  0.84453380    -0.04600
C4314       C  0.88705502  0.74227101  0.83943407    -0.01700
C4315       C  0.85466021  0.74224580  0.83912155     0.03300
C4316       C  0.83797071  0.76905531  0.84390126    -0.04600
C4317       C  0.85436402  0.79513419  0.85032325    -0.01700
C4318       C  0.88669266  0.79511092  0.85072942     0.03300
C4319       C  0.90317819  0.71430167  0.83447868     0.38000
C4320       C  0.83813234  0.82183647  0.85746323     0.38000
C4321       C  0.90245298  0.82159975  0.85856879     0.36400
C4322       C  0.83880428  0.71432240  0.83372678     0.36400
N4323       N  0.91487141  0.84269878  0.86492248    -0.38400
N4324       N  0.82642442  0.69183954  0.82959011    -0.38400
N4325       N  0.82532372  0.84314769  0.86320475    -0.37900
N4326       N  0.91576425  0.69175597  0.83075321    -0.37900
C4327       C  0.58849865  0.77559447  0.84344782    -0.04600
C4328       C  0.60498788  0.79339069  0.85682978    -0.01700
C4329       C  0.63728414  0.79312974  0.85667005     0.03300
C4330       C  0.65319449  0.77463968  0.84335466    -0.04600
C4331       C  0.63665361  0.75697514  0.82993108    -0.01700
C4332       C  0.60444536  0.75791406  0.82975326     0.03300
C4333       C  0.58877977  0.81106041  0.87122551     0.38000
C4334       C  0.65274563  0.73832770  0.81595760     0.38000
C4335       C  0.58772858  0.74167043  0.81491967     0.36400
C4336       C  0.65409277  0.81091372  0.87073883     0.36400
N4337       N  0.57441041  0.72896343  0.80300115    -0.38400
N4338       N  0.66748832  0.82505506  0.88197509    -0.38400
N4339       N  0.66554378  0.72339484  0.80483984    -0.37900
N4340       N  0.57587788  0.82506914  0.88275904    -0.37900
C4341       C  0.90617510  0.98223460  0.84351572    -0.04600
C4342       C  0.89022559  0.96787315  0.82836053    -0.01700
C4343       C  0.85789154  0.96772968  0.82805734     0.03300
C4344       C  0.84110759  0.98195771  0.84289493    -0.04600
C4345       C  0.85333021  0.48630065  0.85740690    -0.01700
C4346       C  0.88569272  0.48688603  0.85755055     0.03300
C4347       C  0.90712007  0.95411778  0.81266660     0.38000
C4348       C  0.83648068  0.49757838  0.87387509     0.38000
C4349       C  0.90176294  0.49895379  0.87409198     0.36400
C4350       C  0.84186578  0.95385360  0.81206464     0.36400
N4351       N  0.91458255  0.50851648  0.88730114    -0.38400
N4352       N  0.82899651  0.94289698  0.79930584    -0.38400
N4353       N  0.82304761  0.50643223  0.88704558    -0.37900
N4354       N  0.92066761  0.94324575  0.80014895    -0.37900
C4355       C  0.59115646  0.97896281  0.84470581    -0.04600
C4356       C  0.60759525  0.95930205  0.85703229    -0.01700
C4357       C  0.63994582  0.95897083  0.85671505     0.03300
C4358       C  0.65616873  0.97838104  0.84409905    -0.04600
C4359       C  0.63594881  0.48938118  0.83020750    -0.01700
C4360       C  0.60364037  0.48960125  0.83040536     0.03300
C4361       C  0.59127255  0.94019679  0.87060057     0.38000
C4362       C  0.65228714  0.50626444  0.81553570     0.38000
C4363       C  0.58707179  0.50642234  0.81582960     0.36400
C4364       C  0.65648704  0.93932157  0.86983891     0.36400
N4365       N  0.57381603  0.51969661  0.80416221    -0.38400
N4366       N  0.66964512  0.92361847  0.88031034    -0.38400
N4367       N  0.66533396  0.51965064  0.80381989    -0.37900
N4368       N  0.57826906  0.92502329  0.88145197    -0.37900
C4369       C  0.72854746  0.75311970  0.74529793    -0.04600
C4370       C  0.75406464  0.73956058  0.75459220    -0.01700
C4371       C  0.75880388  0.74373206  0.77446322     0.03300
C4372       C  0.73818573  0.76136620  0.78543039    -0.04600
C4373       C  0.71269279  0.77487463  0.77629039    -0.01700
C4374       C  0.70777477  0.77067451  0.75643270     0.03300
C4375       C  0.77541136  0.72070411  0.74388134     0.38000
C4376       C  0.69108623  0.79285932  0.78740058     0.38000
C4377       C  0.68163067  0.78530871  0.74751420     0.36400
C4378       C  0.78576922  0.73087891  0.78346659     0.36400
N4379       N  0.66068066  0.79696859  0.74050165    -0.38400
N4380       N  0.80748570  0.72076768  0.79048643    -0.38400
N4381       N  0.67385550  0.80722717  0.79622665    -0.37900
N4382       N  0.79252083  0.70570691  0.73537888    -0.37900
C4383       C  0.72085033  0.90541980  0.68701086    -0.04600
C4384       C  0.70244860  0.88945403  0.67366991    -0.01700
C4385       C  0.70179204  0.85713761  0.67365307     0.03300
C4386       C  0.71941358  0.84054563  0.68703037    -0.04600
C4387       C  0.73715769  0.85652726  0.70069090    -0.01700
C4388       C  0.73794686  0.88883296  0.70064410     0.03300
C4389       C  0.68473267  0.90624166  0.65961310     0.38000
C4390       C  0.75339177  0.83974536  0.71543223     0.38000
C4391       C  0.75517903  0.90504992  0.71523950     0.36400
C4392       C  0.68357350  0.84096838  0.65951685     0.36400
N4393       N  0.76875261  0.91804201  0.72692543    -0.38400
N4394       N  0.66911769  0.82808962  0.64820148    -0.38400
N4395       N  0.76611667  0.82633613  0.72726633    -0.37900
N4396       N  0.67064906  0.91960688  0.64837449    -0.37900
C4397       C  0.71833808  0.65555298  0.68769920    -0.04600
C4398       C  0.69969609  0.63884200  0.70053864    -0.01700
C4399       C  0.69968196  0.60645652  0.70020654     0.03300
C4400       C  0.71880449  0.59029103  0.68729413    -0.04600
C4401       C  0.73685131  0.60704519  0.67414576    -0.01700
C4402       C  0.73649321  0.63940022  0.67428233     0.03300
C4403       C  0.68119113  0.65487903  0.71460247     0.38000
C4404       C  0.75472925  0.59106057  0.65975065     0.38000
C4405       C  0.75380547  0.65602934  0.65993505     0.36400
C4406       C  0.68029606  0.58987766  0.71349762     0.36400
N4407       N  0.76747562  0.66930854  0.64844672    -0.38400
N4408       N  0.66464545  0.57671439  0.72401345    -0.38400
N4409       N  0.76890671  0.57836494  0.64821322    -0.37900
N4410       N  0.66646103  0.66763165  0.72584337    -0.37900
C4411       C  0.73032639  0.49120439  0.74453855    -0.04600
C4412       C  0.71447035  0.97332068  0.75606532    -0.01700
C4413       C  0.71893831  0.97028500  0.77603825     0.03300
C4414       C  0.74193564  0.98736965  0.78552955    -0.04600
C4415       C  0.75889944  0.50080287  0.77438522    -0.01700
C4416       C  0.75483110  0.50548091  0.75448349     0.03300
C4417       C  0.69181046  0.95432127  0.74659171     0.38000
C4418       C  0.78461311  0.51492800  0.78414194     0.38000
C4419       C  0.77578100  0.52555639  0.74440934     0.36400
C4420       C  0.69916161  0.95004431  0.78690554     0.36400
N4421       N  0.79260981  0.54151619  0.73642210    -0.38400
N4422       N  0.68339263  0.93394443  0.79559558    -0.38400
N4423       N  0.80514920  0.52605962  0.79196084    -0.37900
N4424       N  0.67380789  0.93906425  0.73905197    -0.37900
C4425       C  0.01342168  0.75900812  0.74579895    -0.04600
C4426       C  0.99441427  0.73809976  0.75563919    -0.01700
C4427       C  0.98912468  0.74135662  0.77553321     0.03300
C4428       C  0.00345510  0.76512542  0.78606403    -0.04600
C4429       C  0.52308536  0.78596663  0.77579969    -0.01700
C4430       C  0.52774624  0.78310200  0.75582649     0.03300
C4431       C  0.98109587  0.71242461  0.74539534     0.38000
C4432       C  0.53929356  0.80975171  0.78620423     0.38000
C4433       C  0.54649550  0.80543216  0.74588021     0.36400
C4434       C  0.96813223  0.72057418  0.78496458     0.36400
N4435       N  0.56135405  0.82329451  0.73794128    -0.38400
N4436       N  0.95126619  0.70395968  0.79236545    -0.38400
N4437       N  0.55228387  0.82870984  0.79446623    -0.37900
N4438       N  0.97069922  0.69184399  0.73721829    -0.37900
C4439       C  0.02292083  0.91111388  0.68747593    -0.04600
C4440       C  0.00336279  0.89448393  0.69978368    -0.01700
C4441       C  0.00290430  0.86215676  0.69921676     0.03300
C4442       C  0.02253849  0.84601948  0.68663960    -0.04600
C4443       C  0.54207527  0.86268900  0.67386440    -0.01700
C4444       C  0.54232408  0.89505156  0.67432710     0.03300
C4445       C  0.98468342  0.91058772  0.71373465     0.38000
C4446       C  0.56091769  0.84657927  0.66000795     0.38000
C4447       C  0.56176913  0.91177677  0.66114246     0.36400
C4448       C  0.98271381  0.84552722  0.71200274     0.36400
N4449       N  0.57726356  0.92509217  0.65060631    -0.38400
N4450       N  0.96648772  0.83225959  0.72212303    -0.38400
N4451       N  0.57581063  0.83380394  0.64886613    -0.37900
N4452       N  0.96996495  0.92344130  0.72493107    -0.37900
C4453       C  0.02505973  0.59597194  0.68982514    -0.04600
C4454       C  0.01442978  0.61238129  0.67374555    -0.01700
C4455       C  0.01491669  0.64470164  0.67369054     0.03300
C4456       C  0.02622290  0.66103427  0.68966616    -0.04600
C4457       C  0.53850706  0.64468033  0.70517291    -0.01700
C4458       C  0.53762352  0.61227385  0.70536032     0.03300
C4459       C  0.00400262  0.59591652  0.65692877     0.38000
C4460       C  0.55089193  0.66119751  0.72144237     0.38000
C4461       C  0.54832309  0.59574673  0.72203808     0.36400
C4462       C  0.00484215  0.66122573  0.65685123     0.36400
N4463       N  0.55667077  0.58249196  0.73536697    -0.38400
N4464       N  0.99697397  0.67464208  0.64347955    -0.38400
N4465       N  0.56080401  0.67442164  0.73439786    -0.37900
N4466       N  0.99585386  0.58255477  0.64356479    -0.37900
C4467       C  0.00331989  0.98929627  0.78659886    -0.04600
C4468       C  0.98613727  0.50915657  0.77613455    -0.01700
C4469       C  0.99093765  0.51438612  0.75634582     0.03300
C4470       C  0.01173325  0.99748600  0.74639137    -0.04600
C4471       C  0.52764250  0.97302839  0.75620029    -0.01700
C4472       C  0.52302863  0.96865348  0.77605441     0.03300
C4473       C  0.96531014  0.52891210  0.78659986     0.38000
C4474       C  0.54718959  0.95201692  0.74569356     0.38000
C4475       C  0.53863045  0.94361840  0.78555854     0.36400
C4476       C  0.97692158  0.54067302  0.74722112     0.36400
N4477       N  0.55095013  0.92350827  0.79306251    -0.38400
N4478       N  0.96585820  0.56171257  0.73995502    -0.38400
N4479       N  0.56282648  0.93531164  0.73732652    -0.37900
N4480       N  0.94862802  0.54462010  0.79493274    -0.37900
loop_ 
_geom_bond_atom_site_label_1 
_geom_bond_atom_site_label_2 
_geom_bond_distance 
_geom_bond_site_symmetry_2 
_ccdc_geom_bond_type 
O1         V1129   1.907       .  S
O1         C3371   1.266       .  A
O2            V9   1.909       .  S
O2         C3372   1.266       .  A
O3            V9   1.902       .  S
O3           C13   1.265       .  A
O4         V1129   1.905       .  S
O4           C14   1.265       .  A
O5         V1130   1.907       .  S
O5         C2254   1.266       .  A
O6           V10   1.902       .  S
O6         C2253   1.265       .  A
O7         V1130   1.910       .  S
O7           C12   1.266       .  A
O8           V10   1.910       .  S
O8           C11   1.267       .  A
V9         O1121   1.912       .  S
V9         O1124   1.905       .  S
V9         V2250   2.085       .  T
V10        O1125   1.908       .  S
V10        O1127   1.912       .  S
V10        V2249   2.085   1_455  T
C11        O3361   1.267   1_455  A
C11        C3350   1.500       .  S
C12        O3362   1.266       .  A
C12        C2644   1.477       .  S
C13        O2246   1.265       .  A
C13        C1079   1.490       .  S
C14        O2245   1.265       .  A
C14        C1093   1.490       .  S
O15          V23   1.906       .  S
O15        C2265   1.266       .  A
O16          V23   1.907       .  S
O16        C2266   1.265       .  A
O17          V23   1.904       .  S
O17        C2267   1.266       .  A
O18          V23   1.908       .  S
O18        C2268   1.266       .  A
O19          V24   1.904       .  S
O19          C28   1.265       .  A
O20          V24   1.902       .  S
O20          C27   1.265       .  A
O21          V24   1.907       .  S
O21          C26   1.266       .  A
O22          V24   1.911       .  S
O22          C25   1.267       .  A
V23        V2264   2.086   1_455  T
V24        V2263   2.086       .  T
C25        O2255   1.266       .  A
C25        C1065   1.498       .  S
C26        O2256   1.265       .  A
C26         C418   1.476       .  S
C27        O2257   1.266       .  A
C27        C1082   1.492       .  S
C28        O2258   1.266       .  A
C28        C1096   1.489       .  S
O29        V1157   1.906       .  S
O29        C1159   1.265       .  A
O30          V37   1.901       .  S
O30          C40   1.264       .  A
O31          V37   1.909   1_545  S
O31          C41   1.267       .  A
O32        V1157   1.905       .  S
O32          C42   1.266       .  A
O33        V1158   1.896       .  S
O33          C42   1.263       .  A
O34          V38   1.902   1_545  S
O34          C41   1.265       .  A
O35        V1158   1.916       .  S
O35        C1160   1.268       .  A
O36          V38   1.917       .  S
O36          C39   1.269       .  A
V37        O1149   1.902       .  S
V37        O1152   1.905       .  S
V37          V38   2.086       .  T
V38        O1153   1.897       .  S
V38        O1155   1.916       .  S
C39        O1149   1.264       .  A
C39        C1051   1.503       .  S
C40        O1155   1.268       .  A
C40         C432   1.478       .  S
C41        C1040   1.496       .  S
C42        C1023   1.483       .  S
O43          V51   1.904       .  S
O43          C53   1.265       .  A
O44          V51   1.903       .  S
O44          C54   1.265       .  A
O45          V51   1.904       .  S
O45          C55   1.265       .  A
O46          V51   1.907       .  S
O46          C56   1.266       .  A
O47          V52   1.903       .  S
O47          C56   1.265       .  A
O48          V52   1.899       .  S
O48          C55   1.263       .  A
O49          V52   1.919       .  S
O49          C54   1.268       .  A
O50          V52   1.920       .  S
O50          C53   1.270       .  A
V51          V52   2.085       .  T
C53        C1009   1.506       .  S
C54         C446   1.482       .  S
C55        C1026   1.484       .  S
C56        C1037   1.495       .  S
O57        V2305   1.915       .  S
O57        C2307   1.269       .  A
O58          V65   1.916       .  S
O58          C68   1.268       .  A
O59          V65   1.904       .  S
O59          C69   1.265       .  A
O60        V2305   1.903   1_455  S
O60          C70   1.264       .  A
O61        V2306   1.903   1_455  S
O61        C1190   1.265   1_545  A
O62          V66   1.906       .  S
O62        C1189   1.266   1_545  A
O63        V2306   1.903       .  S
O63        C3428   1.265   1_545  A
O64          V66   1.907       .  S
O64        C1187   1.266   1_545  A
V65        O2297   1.915       .  S
V65        O2300   1.903       .  S
V65        V1186   2.085       .  T
V66        O2301   1.903       .  S
V66        O2303   1.904       .  S
V66        V1185   2.086   1_545  T
C67        O2297   1.269       .  A
C67        O1184   1.266       .  A
C67        C1107   1.508       .  S
C68        O3423   1.265       .  A
C68         C348   1.479       .  S
C69        O1182   1.266       .  A
C69         C981   1.491       .  S
C70        O1181   1.266       .  A
C70         C995   1.488       .  S
O71        V2319   1.910       .  S
O71        C2321   1.267       .  A
O72          V79   1.905       .  S
O72          C82   1.265       .  A
O73          V79   1.901       .  S
O73          C83   1.265       .  A
O74        V2319   1.899       .  S
O74          C84   1.265       .  A
O75        V2320   1.898   1_455  S
O75          C84   1.264       .  A
O76          V80   1.898       .  S
O76          C83   1.265       .  A
O77        V2320   1.918   1_455  S
O77        C2322   1.268       .  A
O78          V80   1.912       .  S
O78          C81   1.268       .  A
V79        O2311   1.910       .  S
V79        O2314   1.898       .  S
V79          V80   2.083       .  T
V80        O2315   1.899       .  S
V80        O2317   1.918       .  S
C81        O2311   1.267       .  A
C81        C1068   1.507       .  S
C82        O2317   1.268       .  A
C82         C362   1.482       .  S
C83         C953   1.501       .  S
C84         C967   1.495       .  S
O85          V93   1.914       .  S
O85          C95   1.268       .  A
O86          V93   1.913       .  S
O86          C96   1.267       .  A
O87          V93   1.905       .  S
O87          C97   1.265       .  A
O88          V93   1.909       .  S
O88          C98   1.266       .  A
O89          V94   1.904       .  S
O89        C1218   1.265   1_545  A
O90          V94   1.901       .  S
O90        C1217   1.265   1_545  A
O91          V94   1.903   1_565  S
O91        C1216   1.265       .  A
O92          V94   1.908       .  S
O92        C1215   1.266   1_545  A
V93        V1214   2.086       .  T
V94        V1213   2.086   1_545  T
C95        O1212   1.266       .  A
C95        C1054   1.500       .  S
C96        O1211   1.265       .  A
C96        C1496   1.476       .  S
C97        O1210   1.265       .  A
C97         C998   1.488       .  S
C98        O1209   1.265       .  A
C98         C984   1.491       .  S
O99         V107   1.908       .  S
O99         C109   1.265       .  A
O100        V107   1.901       .  S
O100        C110   1.264       .  A
O101        V107   1.900       .  S
O101        C111   1.266       .  A
O102        V107   1.904       .  S
O102        C112   1.266       .  A
O103        V108   1.897       .  S
O103        C112   1.265       .  A
O104        V108   1.893       .  S
O104        C111   1.262       .  A
O105        V108   1.922       .  S
O105        C110   1.269       .  A
O106        V108   1.917       .  S
O106        C109   1.269       .  A
V107        V108   2.084       .  T
C109       C1012   1.504       .  S
C110        C390   1.483       .  S
C111        C970   1.492       .  S
C112        C956   1.500       .  S
O113        V121   1.918       .  S
O113       C2363   1.269       .  A
O114       V1241   1.921       .  S
O114       C3484   1.269       .  A
O115       V1241   1.902       .  S
O115       C2365   1.264       .  A
O116        V121   1.903   1_545  S
O116       C2366   1.265       .  A
O117        V122   1.911   1_545  S
O117        C126   1.267       .  A
O118       V1242   1.903       .  S
O118        C125   1.266       .  A
O119        V122   1.899       .  S
O119        C124   1.264       .  A
O120       V1242   1.907       .  S
O120       C1243   1.265       .  A
V121       O1234   1.919       .  S
V121       O1235   1.903       .  S
V121       V2362   2.086       .  T
V122       O1238   1.903       .  S
V122       O1240   1.902       .  S
V122       V2361   2.086       .  T
C123       O2353   1.269       .  A
C123       O1240   1.264       .  A
C123        C942   1.495       .  S
C124       O3474   1.268       .  A
C124        C180   1.480       .  S
C125       O2355   1.264       .  A
C125        C914   1.489       .  S
C126       O2356   1.265       .  A
C126        C925   1.493       .  S
O127        V135   1.907       .  S
O127        C137   1.266       .  A
O128        V135   1.905       .  S
O128        C138   1.266       .  A
O129        V135   1.901       .  S
O129        C139   1.264       .  A
O130        V135   1.907       .  S
O130        C140   1.265       .  A
O131        V136   1.908       .  S
O131       C2380   1.266       .  A
O132        V136   1.902       .  S
O132       C2379   1.264       .  A
O133        V136   1.915       .  S
O133       C2378   1.267       .  A
O134        V136   1.914       .  S
O134       C2377   1.269       .  A
V135       V2376   2.085       .  T
V136       V2375   2.085       .  T
C137       O2374   1.269       .  A
C137        C897   1.509       .  S
C138       O2373   1.267       .  A
C138        C194   1.480       .  S
C139       O2372   1.264       .  A
C139        C911   1.485       .  S
C140       O2371   1.266       .  A
C140        C928   1.493       .  S
O141        V149   1.905       .  S
O141        C151   1.266       .  A
O142       V1269   1.904       .  S
O142       C1272   1.266       .  A
O143       V1269   1.896       .  S
O143        C153   1.263       .  A
O144        V149   1.903   1_545  S
O144        C154   1.265       .  A
O145        V150   1.910   1_545  S
O145        C154   1.266       .  A
O146       V1270   1.908       .  S
O146        C153   1.267       .  A
O147        V150   1.910       .  S
O147        C152   1.266       .  A
O148       V1270   1.906       .  S
O148       C1271   1.266       .  A
V149       O1262   1.899       .  S
V149       O1263   1.900       .  S
V149        V150   2.086       .  T
V150       O1266   1.908       .  S
V150       O1268   1.910       .  S
C151       O1268   1.267       .  A
C151        C883   1.503       .  S
C152       O1262   1.264       .  A
C152       C1328   1.472       .  S
C153        C855   1.491       .  S
C154        C869   1.491       .  S
O155        V163   1.909       .  S
O155        C165   1.267       .  A
O156        V163   1.901       .  S
O156        C166   1.265       .  A
O157        V163   1.908       .  S
O157        C167   1.266       .  A
O158        V163   1.907       .  S
O158        C168   1.266       .  A
O159        V164   1.901       .  S
O159        C168   1.265       .  A
O160        V164   1.909       .  S
O160        C167   1.266       .  A
O161        V164   1.913       .  S
O161        C166   1.266       .  A
O162        V164   1.911       .  S
O162        C165   1.268       .  A
V163        V164   2.083       .  T
C165        C841   1.517       .  S
C166        C222   1.476       .  S
C167        C872   1.494       .  S
C168        C858   1.493       .  S
O169        V177   1.902   1_545  S
O169        C179   1.265       .  A
O170       V1297   1.905       .  S
O170       C1300   1.266       .  A
O171       V1297   1.907       .  S
O171        C181   1.266       .  A
O172        V177   1.904   1_545  S
O172        C182   1.265       .  A
O173        V178   1.903   1_545  S
O173       C2422   1.265       .  A
O174       V1298   1.903       .  S
O174       C2421   1.265       .  A
O175        V178   1.918   1_545  S
O175       C2420   1.268   1_545  A
O176       V1298   1.919       .  S
O176       C3539   1.269       .  A
V177       O1290   1.899       .  S
V177       O1291   1.907       .  S
V177       V2418   2.086   1_565  T
V178       O1294   1.903       .  S
V178       O1296   1.918       .  S
V178       V2417   2.086       .  T
C179       O3536   1.270   1_545  A
C179        C830   1.502       .  S
C180       O1290   1.264       .  A
C180       O2415   1.268   1_565  A
C181       O2414   1.265       .  A
C181        C802   1.491       .  S
C182       O2413   1.265       .  A
C182        C813   1.488       .  S
O183        V191   1.901       .  S
O183        C193   1.264       .  A
O184        V191   1.902       .  S
O184        C194   1.264       .  A
O185        V191   1.906       .  S
O185        C195   1.265       .  A
O186        V191   1.909       .  S
O186        C196   1.267       .  A
O187        V192   1.902       .  S
O187       C2436   1.264       .  A
O188        V192   1.901       .  S
O188       C2435   1.264       .  A
O189        V192   1.917       .  S
O189       C2434   1.268       .  A
O190        V192   1.916       .  S
O190       C2433   1.268       .  A
V191       V2432   2.086       .  T
V192       V2431   2.086       .  T
C193       O2430   1.269       .  A
C193        C785   1.498       .  S
C194       O2429   1.268       .  A
C195       O2428   1.264       .  A
C195        C816   1.488       .  S
C196       O2427   1.264       .  A
C196        C799   1.491       .  S
O197       V1325   1.913       .  S
O197       C1327   1.267       .  A
O198        V205   1.912       .  S
O198        C208   1.267       .  A
O199        V205   1.903       .  S
O199        C209   1.265       .  A
O200       V1325   1.901   1_545  S
O200        C210   1.265       .  A
O201       V1326   1.902   1_545  S
O201        C210   1.265       .  A
O202        V206   1.903       .  S
O202        C209   1.265       .  A
O203       V1326   1.898       .  S
O203       C1328   1.264       .  A
O204        V206   1.903       .  S
O204        C207   1.265       .  A
V205       O1317   1.914       .  S
V205       O1320   1.900       .  S
V205        V206   2.086       .  T
V206       O1321   1.903       .  S
V206       O1323   1.899       .  S
C207       O1317   1.268       .  A
C207        C771   1.499       .  S
C208       O1323   1.263       .  A
C208       C1272   1.474       .  S
C209        C743   1.490       .  S
C210        C757   1.491       .  S
O211        V219   1.903       .  S
O211        C221   1.265       .  A
O212        V219   1.898       .  S
O212        C222   1.263       .  A
O213        V219   1.907       .  S
O213        C223   1.266       .  A
O214        V219   1.907       .  S
O214        C224   1.267       .  A
O215        V220   1.895       .  S
O215        C224   1.263       .  A
O216        V220   1.899       .  S
O216        C223   1.264       .  A
O217        V220   1.916       .  S
O217        C222   1.268       .  A
O218        V220   1.917       .  S
O218        C221   1.269       .  A
V219        V220   2.086       .  T
C221        C729   1.498       .  S
C223        C746   1.491       .  S
C224        C760   1.491       .  S
O225        V233   1.903       .  S
O225        C235   1.266       .  A
O226       V2473   1.904       .  S
O226       C2476   1.265       .  A
O227       V2473   1.906   1_455  S
O227        C237   1.265       .  A
O228        V233   1.905       .  S
O228        C238   1.266       .  A
O229        V234   1.902       .  S
O229       C1358   1.265       .  A
O230       V2474   1.903   1_455  S
O230       C1357   1.265       .  A
O231        V234   1.912       .  S
O231       C1356   1.267       .  A
O232       V2474   1.913       .  S
O232       C3595   1.267       .  A
V233       O2466   1.905       .  S
V233       O2467   1.905       .  S
V233       V1354   2.086       .  T
V234       O2470   1.903       .  S
V234       O2472   1.913       .  S
V234       V1353   2.086       .  T
C235       O3592   1.266       .  A
C235        C715   1.497       .  S
C236       O2466   1.265       .  A
C236       O1351   1.267       .  A
C236        C292   1.478       .  S
C237       O1350   1.265       .  A
C237        C701   1.490       .  S
C238       O1349   1.265       .  A
C238        C690   1.492       .  S
O239        V247   1.917       .  S
O239        C249   1.268       .  A
O240       V2487   1.919       .  S
O240       C2490   1.268       .  A
O241       V2487   1.901       .  S
O241        C251   1.264       .  A
O242        V247   1.900       .  S
O242        C252   1.264       .  A
O243        V248   1.904       .  S
O243        C252   1.265       .  A
O244       V2488   1.907       .  S
O244        C251   1.267       .  A
O245        V248   1.899       .  S
O245        C250   1.264       .  A
O246       V2488   1.902       .  S
O246       C2489   1.264       .  A
V247       O2480   1.919       .  S
V247       O2481   1.902       .  S
V247        V248   2.086       .  T
V248       O2484   1.907       .  S
V248       O2486   1.902       .  S
C249       O2486   1.264       .  A
C249        C673   1.496       .  S
C250       O2480   1.268       .  A
C250        C306   1.479       .  S
C251        C662   1.495       .  S
C252        C645   1.487       .  S
O253        V261   1.899       .  S
O253        C263   1.264       .  A
O254        V261   1.900       .  S
O254        C264   1.264       .  A
O255        V261   1.906       .  S
O255        C265   1.266       .  A
O256        V261   1.908       .  S
O256        C266   1.266       .  A
O257        V262   1.905       .  S
O257       C1386   1.266       .  A
O258        V262   1.903       .  S
O258       C1385   1.265       .  A
O259        V262   1.907       .  S
O259       C1384   1.266       .  A
O260        V262   1.909       .  S
O260       C1383   1.266       .  A
V261       V1382   2.086       .  T
V262       V1381   2.086       .  T
C263       O1380   1.267       .  A
C263        C631   1.493       .  S
C264       O1379   1.267       .  A
C264        C320   1.473       .  S
C265       O1378   1.264       .  A
C265        C687   1.491       .  S
C266       O1377   1.265       .  A
C266        C704   1.491       .  S
O267        V275   1.914       .  S
O267        C277   1.268       .  A
O268        V275   1.916       .  S
O268        C278   1.267       .  A
O269        V275   1.901       .  S
O269        C279   1.265       .  A
O270        V275   1.903       .  S
O270        C280   1.265       .  A
O271        V276   1.906       .  S
O271        C280   1.267       .  A
O272        V276   1.903       .  S
O272        C279   1.265       .  A
O273        V276   1.900       .  S
O273        C278   1.264       .  A
O274        V276   1.903       .  S
O274        C277   1.265       .  A
V275        V276   2.086       .  T
C277        C620   1.496       .  S
C278        C334   1.478       .  S
C279        C648   1.486       .  S
C280        C659   1.495       .  S
O281        V289   1.914       .  S
O281       C1411   1.269       .  A
O282       V2529   1.911       .  S
O282       C3652   1.266       .  A
O283       V2529   1.901   1_455  S
O283       C1413   1.264       .  A
O284        V289   1.907       .  S
O284       C1414   1.266       .  A
O285        V290   1.904       .  S
O285        C294   1.266   1_545  A
O286       V2530   1.904   1_455  S
O286        C293   1.265   1_545  A
O287        V290   1.906   1_565  S
O287        C292   1.266       .  A
O288       V2530   1.906   1_455  S
O288       C2531   1.266   1_545  A
V289       O2522   1.911       .  S
V289       O2523   1.901       .  S
V289       V1410   2.083       .  T
V290       O2526   1.904       .  S
V290       O2528   1.908       .  S
V290       V1409   2.083   1_545  T
C291       O1401   1.269       .  A
C291       O2528   1.267   1_565  A
C291        C939   1.519       .  S
C292       O3642   1.266       .  A
C293       O1403   1.264       .  A
C293        C606   1.486       .  S
C294       O1404   1.266       .  A
C294        C592   1.497       .  S
O295        V303   1.904       .  S
O295        C305   1.265       .  A
O296       V2543   1.901       .  S
O296       C2546   1.265       .  A
O297       V2543   1.903       .  S
O297        C307   1.265       .  A
O298        V303   1.910       .  S
O298        C308   1.267       .  A
O299        V304   1.905       .  S
O299        C308   1.265       .  A
O300       V2544   1.901       .  S
O300        C307   1.264       .  A
O301        V304   1.918       .  S
O301        C306   1.267       .  A
O302       V2544   1.917       .  S
O302       C2545   1.269       .  A
V303       O2536   1.901       .  S
V303       O2537   1.903       .  S
V303        V304   2.085       .  T
V304       O2540   1.901       .  S
V304       O2542   1.918       .  S
C305       O2542   1.269       .  A
C305        C900   1.501       .  S
C306       O2536   1.265       .  A
C307        C578   1.488       .  S
C308        C561   1.493       .  S
O309        V317   1.907       .  S
O309       C1439   1.266       .  A
O310        V317   1.904       .  S
O310       C1440   1.264       .  A
O311        V317   1.910       .  S
O311        C321   1.267       .  A
O312        V317   1.905       .  S
O312        C322   1.265       .  A
O313        V318   1.898       .  S
O313       C1442   1.264   1_545  A
O314        V318   1.901       .  S
O314       C1441   1.265   1_545  A
O315        V318   1.904   1_565  S
O315        C320   1.265       .  A
O316        V318   1.906       .  S
O316        C319   1.266   1_545  A
V317       V1438   2.086       .  T
V318       V1437   2.087   1_545  T
C319       O1429   1.266       .  A
C319        C886   1.496       .  S
C320       O1430   1.265       .  A
C321       O1434   1.265       .  A
C321       C1709   1.495       .  S
C322       O1433   1.264       .  A
C322       C1723   1.487       .  S
O323        V331   1.902       .  S
O323        C333   1.264       .  A
O324        V331   1.899       .  S
O324        C334   1.264       .  A
O325        V331   1.912       .  S
O325        C335   1.267       .  A
O326        V331   1.904       .  S
O326        C336   1.266       .  A
O327        V332   1.901       .  S
O327        C336   1.264       .  A
O328        V332   1.903       .  S
O328        C335   1.265       .  A
O329        V332   1.917       .  S
O329        C334   1.267       .  A
O330        V332   1.918       .  S
O330        C333   1.268       .  A
V331        V332   2.086       .  T
C333        C844   1.494       .  S
C335        C564   1.494       .  S
C336        C575   1.489       .  S
O337       V2585   1.900   1_455  S
O337       C2587   1.265       .  A
O338        V345   1.903       .  S
O338       C1468   1.265       .  A
O339        V345   1.904       .  S
O339       C1469   1.265       .  A
O340       V2585   1.906   1_455  S
O340       C1470   1.266       .  A
O341       V2586   1.903   1_455  S
O341        C350   1.265       .  A
O342        V346   1.900       .  S
O342        C349   1.264       .  A
O343       V2586   1.914       .  S
O343       C2588   1.267       .  A
O344        V346   1.913       .  S
O344       C1467   1.268       .  A
V345       O2577   1.902       .  S
V345       O2580   1.905       .  S
V345       V1466   2.086       .  T
V346       O2581   1.903       .  S
V346       O2583   1.914       .  S
V346       V1465   2.086       .  T
C347       O2577   1.265       .  A
C347       O1464   1.267       .  A
C347        C718   1.498       .  S
C348       O1458   1.265       .  A
C348       O2583   1.267       .  A
C349       O1459   1.266       .  A
C349       C1653   1.488       .  S
C350       O1460   1.266       .  A
C350       C1667   1.492       .  S
O351        V359   1.908       .  S
O351        C361   1.266       .  A
O352       V2599   1.906   1_455  S
O352       C2602   1.266       .  A
O353       V2599   1.906   1_455  S
O353        C363   1.266       .  A
O354        V359   1.904       .  S
O354        C364   1.265       .  A
O355        V360   1.901       .  S
O355        C364   1.264       .  A
O356       V2600   1.896       .  S
O356        C363   1.264       .  A
O357        V360   1.917       .  S
O357        C362   1.268       .  A
O358       V2600   1.912       .  S
O358       C2601   1.267   1_455  A
V359       O2592   1.906       .  S
V359       O2593   1.906       .  S
V359        V360   2.085       .  T
V360       O2596   1.896       .  S
V360       O2598   1.912       .  S
C361       O2598   1.267       .  A
C361        C676   1.497       .  S
C362       O2592   1.266       .  A
C363        C519   1.494       .  S
C364        C505   1.487       .  S
O365        V373   1.909       .  S
O365       C1495   1.266       .  A
O366        V373   1.912       .  S
O366       C1496   1.266       .  A
O367        V373   1.901       .  S
O367       C1497   1.265       .  A
O368        V373   1.904       .  S
O368       C1498   1.265       .  A
O369        V374   1.906       .  S
O369        C378   1.266       .  A
O370        V374   1.906       .  S
O370        C377   1.266       .  A
O371        V374   1.901       .  S
O371        C376   1.264       .  A
O372        V374   1.899       .  S
O372        C375   1.265       .  A
V373       V1494   2.086       .  T
V374       V1493   2.086       .  T
C375       O1485   1.267       .  A
C375        C634   1.495       .  S
C376       O1486   1.266       .  A
C376       C1216   1.473       .  S
C377       O1487   1.264       .  A
C377        C536   1.488       .  S
C378       O1488   1.265       .  A
C378        C550   1.490       .  S
O379        V387   1.914       .  S
O379        C389   1.267       .  A
O380        V387   1.921       .  S
O380        C390   1.268       .  A
O381        V387   1.901       .  S
O381        C391   1.265       .  A
O382        V387   1.904       .  S
O382        C392   1.265       .  A
O383        V388   1.900       .  S
O383        C392   1.264       .  A
O384        V388   1.902       .  S
O384        C391   1.265       .  A
O385        V388   1.903       .  S
O385        C390   1.265       .  A
O386        V388   1.905       .  S
O386        C389   1.265       .  A
V387        V388   2.085       .  T
C389        C617   1.497       .  S
C391        C522   1.495       .  S
C392        C508   1.486       .  S
O393       V1521   1.904       .  S
O393       C1523   1.266       .  A
O394        V401   1.907       .  S
O394        C404   1.266       .  A
O395        V401   1.899       .  S
O395        C405   1.264       .  A
O396       V1521   1.898       .  S
O396        C406   1.265       .  A
O397       V1522   1.895       .  S
O397       C2646   1.263       .  A
O398        V402   1.891       .  S
O398       C2645   1.264       .  A
O399       V1522   1.913       .  S
O399       C3764   1.267       .  A
O400        V402   1.919       .  S
O400       C2643   1.268   1_545  A
V401       O1513   1.905   1_545  S
V401       O1516   1.901   1_545  S
V401       V2642   2.083       .  T
V402       O1517   1.893   1_545  S
V402       O1519   1.911       .  S
V402       V2641   2.083       .  T
C403       O1513   1.265   1_545  A
C403       O2640   1.268       .  A
C403        C827   1.502       .  S
C404       O3759   1.266       .  A
C404       C2252   1.478       .  S
C405       O2638   1.264       .  A
C405        C491   1.500       .  S
C406       O2637   1.264       .  A
C406        C480   1.497       .  S
O407        V415   1.918       .  S
O407       C2657   1.268       .  A
O408        V415   1.910       .  S
O408       C2658   1.266       .  A
O409        V415   1.890       .  S
O409       C2659   1.263       .  A
O410        V415   1.891       .  S
O410       C2660   1.262       .  A
O411        V416   1.901       .  S
O411        C420   1.266       .  A
O412        V416   1.900       .  S
O412        C419   1.265       .  A
O413        V416   1.905       .  S
O413        C418   1.265       .  A
O414        V416   1.901       .  S
O414        C417   1.264       .  A
V415       V2656   2.083       .  T
V416       V2655   2.083       .  T
C417       O2647   1.268       .  A
C417        C788   1.497       .  S
C418       O2648   1.266       .  A
C419       O2649   1.263       .  A
C419        C494   1.500       .  S
C420       O2650   1.262       .  A
C420        C477   1.498       .  S
O421       V1549   1.913       .  S
O421       C1551   1.268       .  A
O422        V429   1.914       .  S
O422        C432   1.267       .  A
O423        V429   1.902   1_545  S
O423        C433   1.265       .  A
O424       V1549   1.906       .  S
O424        C434   1.265       .  A
O425       V1550   1.904       .  S
O425        C434   1.265       .  A
O426        V430   1.905   1_545  S
O426        C433   1.266       .  A
O427       V1550   1.907       .  S
O427       C1552   1.266       .  A
O428        V430   1.905       .  S
O428        C431   1.266       .  A
V429       O1541   1.912       .  S
V429       O1544   1.907       .  S
V429        V430   2.086       .  T
V430       O1545   1.905       .  S
V430       O1547   1.903       .  S
C431       O1541   1.267       .  A
C431        C774   1.496       .  S
C432       O1547   1.265       .  A
C433        C466   1.491       .  S
C434        C449   1.488       .  S
O435        V443   1.914       .  S
O435        C445   1.268       .  A
O436        V443   1.917       .  S
O436        C446   1.268       .  A
O437        V443   1.905       .  S
O437        C447   1.265       .  A
O438        V443   1.903       .  S
O438        C448   1.265       .  A
O439        V444   1.905       .  S
O439        C448   1.266       .  A
O440        V444   1.904       .  S
O440        C447   1.265       .  A
O441        V444   1.905       .  S
O441        C446   1.266       .  A
O442        V444   1.906       .  S
O442        C445   1.266       .  A
V443        V444   2.085       .  T
C445        C732   1.498       .  S
C447        C452   1.488       .  S
C448        C463   1.491       .  S
C449        C450   1.413       .  A
C449        C454   1.414       .  A
C450        C451   1.413       .  A
C450        C455   1.451       .  S
C451        C452   1.414       .  A
C451        C458   1.451       .  S
C452        C453   1.414       .  A
C453        C454   1.414       .  A
C453        C456   1.451       .  S
C454        C457   1.451       .  S
C455        N462   1.157       .  T
C456        N461   1.157       .  T
C457        N459   1.157       .  T
C458        N460   1.157       .  T
C463        C464   1.415       .  A
C463        C468   1.414       .  A
C464        C465   1.414       .  A
C464        C469   1.451       .  S
C465        C466   1.414       .  A
C465        C472   1.451       .  S
C466        C467   1.415       .  A
C467        C468   1.413       .  A
C467        C470   1.452       .  S
C468        C471   1.452       .  S
C469        N476   1.157       .  T
C470        N475   1.157       .  T
C471        N473   1.157       .  T
C472        N474   1.157       .  T
C477        C478   1.417       .  A
C477       C2722   1.419       .  A
C478        C479   1.411       .  A
C478        C483   1.453       .  S
C479        C480   1.417       .  A
C479        C486   1.453       .  S
C480       C2721   1.417       .  A
C481        C482   1.411       .  A
C481       C2720   1.417       .  A
C481        C484   1.451       .  S
C482       C2717   1.419       .  A
C482        C485   1.452       .  S
C483        N490   1.157       .  T
C484        N489   1.157       .  T
C485        N487   1.157       .  T
C486        N488   1.157       .  T
C491        C492   1.420       .  A
C491       C2736   1.419       .  A
C492        C493   1.413       .  A
C492        C497   1.452       .  S
C493        C494   1.419       .  A
C493        C500   1.453       .  S
C494       C2735   1.420       .  A
C495        C496   1.410       .  A
C495       C2734   1.421       .  A
C495        C498   1.454       .  S
C496       C2731   1.419       .  A
C496        C499   1.455       .  S
C497        N504   1.158       .  T
C498        N503   1.158       .  T
C499        N501   1.157       .  T
C500        N502   1.157       .  T
C505        C506   1.414       .  A
C505        C510   1.413       .  A
C506        C507   1.413       .  A
C506        C511   1.451       .  S
C507        C508   1.414       .  A
C507        C514   1.452       .  S
C508        C509   1.414       .  A
C509        C510   1.412       .  A
C509        C512   1.452       .  S
C510        C513   1.451       .  S
C511        N518   1.157       .  T
C512        N517   1.157       .  T
C513        N515   1.157       .  T
C514        N516   1.157       .  T
C519        C520   1.415       .  A
C519        C524   1.416       .  A
C520        C521   1.415       .  A
C520        C525   1.451       .  S
C521        C522   1.417       .  A
C521        C528   1.452       .  S
C522        C523   1.415       .  A
C523        C524   1.411       .  A
C523        C526   1.451       .  S
C524        C527   1.451       .  S
C525        N532   1.157       .  T
C526        N531   1.157       .  T
C527        N529   1.157       .  T
C528        N530   1.157       .  T
C533       C1469   1.488       .  S
C533        C534   1.413       .  A
C533       C1658   1.414       .  A
C534        C535   1.414       .  A
C534        C539   1.451       .  S
C535        C536   1.413       .  A
C535        C542   1.451       .  S
C536       C1657   1.414       .  A
C537        C538   1.412       .  A
C537       C1656   1.414       .  A
C537        C540   1.452       .  S
C538       C1653   1.414       .  A
C538        C541   1.452       .  S
C539        N546   1.157       .  T
C540        N545   1.157       .  T
C541        N543   1.157       .  T
C542        N544   1.157   1_565  T
C547       C1470   1.491       .  S
C547        C548   1.415       .  A
C547       C1672   1.414       .  A
C548        C549   1.414       .  A
C548        C553   1.451   1_565  S
C549        C550   1.414       .  A
C549        C556   1.451   1_565  S
C550       C1671   1.415       .  A
C551        C552   1.414       .  A
C551       C1670   1.415       .  A
C551        C554   1.451       .  S
C552       C1667   1.415       .  A
C552        C555   1.452       .  S
C553        N560   1.157       .  T
C554        N559   1.157       .  T
C555        N557   1.157       .  T
C556        N558   1.157       .  T
C561        C562   1.415       .  A
C561        C566   1.414       .  A
C562        C563   1.414       .  A
C562        C567   1.452       .  S
C563        C564   1.415       .  A
C563        C570   1.452       .  S
C564        C565   1.415       .  A
C565        C566   1.417       .  A
C565        C568   1.450       .  S
C566        C569   1.451       .  S
C567        N574   1.158       .  T
C568        N573   1.157       .  T
C569        N571   1.157       .  T
C570        N572   1.158       .  T
C575        C576   1.414       .  A
C575        C580   1.415       .  A
C576        C577   1.413       .  A
C576        C581   1.452       .  S
C577        C578   1.414       .  A
C577        C584   1.452       .  S
C578        C579   1.414       .  A
C579        C580   1.412       .  A
C579        C582   1.452       .  S
C580        C583   1.452       .  S
C581        N588   1.158       .  T
C582        N587   1.158       .  T
C583        N585   1.157       .  T
C584        N586   1.157       .  T
C589       C1441   1.495       .  S
C589        C590   1.416       .  A
C589       C1714   1.415       .  A
C590        C591   1.414       .  A
C590        C595   1.452   1_565  S
C591        C592   1.416       .  A
C591        C598   1.452   1_565  S
C592       C1713   1.415       .  A
C593        C594   1.416       .  A
C593       C1712   1.416       .  A
C593        C596   1.450       .  S
C594       C1709   1.414       .  A
C594        C597   1.451       .  S
C595        N602   1.157       .  T
C596        N601   1.157       .  T
C597        N599   1.157       .  T
C598        N600   1.158       .  T
C603       C1442   1.483       .  S
C603        C608   1.411       .  A
C603       C1724   1.413       .  A
C604        C605   1.414       .  A
C604       C1723   1.414       .  A
C604        C609   1.451       .  S
C605       C1726   1.416       .  A
C605        C612   1.452       .  S
C606        C607   1.413       .  A
C606       C1725   1.414       .  A
C607        C608   1.410       .  A
C607        C610   1.448   1_565  S
C608        C611   1.453   1_565  S
C609        N616   1.158       .  T
C610        N615   1.156       .  T
C611        N613   1.157       .  T
C612        N614   1.158       .  T
C617        C618   1.415   1_556  A
C617        C622   1.416   1_556  A
C618        C619   1.415       .  A
C618        C623   1.452   1_554  S
C619        C620   1.415       .  A
C619        C626   1.452       .  S
C620        C621   1.415       .  A
C621        C622   1.418       .  A
C621        C624   1.451       .  S
C622        C625   1.450   1_554  S
C623        N630   1.157       .  T
C624        N629   1.157       .  T
C625        N627   1.157       .  T
C626        N628   1.157       .  T
C631        C632   1.415       .  A
C631       C1756   1.415       .  A
C632        C633   1.413       .  A
C632        C637   1.452   1_565  S
C633        C634   1.416   1_554  A
C633        C640   1.452   1_564  S
C634       C1755   1.416   1_556  A
C635        C636   1.415       .  A
C635       C1754   1.415   1_554  A
C635        C638   1.451   1_554  S
C636       C1751   1.414       .  A
C636        C639   1.451       .  S
C637        N644   1.157       .  T
C638        N643   1.157       .  T
C639        N641   1.157       .  T
C640        N642   1.157       .  T
C645        C646   1.414       .  A
C645        C650   1.414       .  A
C646        C647   1.411       .  A
C646        C651   1.451       .  S
C647        C648   1.413       .  A
C647        C654   1.452       .  S
C648        C649   1.415       .  A
C649        C650   1.414       .  A
C649        C652   1.451       .  S
C650        C653   1.451       .  S
C651        N658   1.157       .  T
C652        N657   1.158       .  T
C653        N655   1.158       .  T
C654        N656   1.157       .  T
C659        C660   1.415       .  A
C659        C664   1.416       .  A
C660        C661   1.414       .  A
C660        C665   1.452       .  S
C661        C662   1.415       .  A
C661        C668   1.452       .  S
C662        C663   1.416       .  A
C663        C664   1.415       .  A
C663        C666   1.452       .  S
C664        C667   1.452       .  S
C665        N672   1.157       .  T
C666        N671   1.157       .  T
C667        N669   1.157       .  T
C668        N670   1.157       .  T
C673        C674   1.414       .  A
C673       C2918   1.415       .  A
C674        C675   1.418       .  A
C674        C679   1.451       .  S
C675        C676   1.416   1_554  A
C675        C682   1.451   1_554  S
C676       C2917   1.415   1_556  A
C677        C678   1.416       .  A
C677       C2916   1.415   1_554  A
C677        C680   1.451   1_554  S
C678       C2913   1.415   1_655  A
C678        C681   1.452       .  S
C679        N686   1.157       .  T
C680        N685   1.157       .  T
C681        N683   1.157       .  T
C682        N684   1.157       .  T
C687        C688   1.415       .  A
C687       C1812   1.413       .  A
C688        C689   1.415       .  A
C688        C693   1.451       .  S
C689        C690   1.415       .  A
C689        C696   1.451       .  S
C690       C1811   1.415       .  A
C691        C692   1.413       .  A
C691       C1810   1.414       .  A
C691        C694   1.451       .  S
C692       C1807   1.413       .  A
C692        C695   1.451       .  S
C693        N700   1.157       .  T
C694        N699   1.157       .  T
C695        N697   1.157       .  T
C696        N698   1.157       .  T
C701        C706   1.414       .  A
C701       C1822   1.414       .  A
C702        C703   1.413       .  A
C702       C1821   1.414       .  A
C702        C707   1.452       .  S
C703       C1824   1.414       .  A
C703        C710   1.452       .  S
C704        C705   1.414       .  A
C704       C1823   1.414       .  A
C705        C706   1.415       .  A
C705        C708   1.451   1_565  S
C706        C709   1.451   1_565  S
C707        N714   1.157       .  T
C708        N713   1.157       .  T
C709        N711   1.157       .  T
C710        N712   1.157       .  T
C715        C716   1.415       .  A
C715       C4080   1.416       .  A
C716        C717   1.413       .  A
C716        C721   1.453       .  S
C717        C718   1.416   1_554  A
C717        C724   1.451   1_554  S
C718       C4079   1.416   1_556  A
C719        C720   1.417       .  A
C719       C4078   1.415   1_554  A
C719        C722   1.450   1_554  S
C720       C4075   1.415       .  A
C720        C723   1.450       .  S
C721        N728   1.157   1_565  T
C722        N727   1.157       .  T
C723        N725   1.157       .  T
C724        N726   1.158   1_565  T
C729        C730   1.415       .  A
C729        C734   1.415       .  A
C730        C731   1.416       .  A
C730        C735   1.452       .  S
C731        C732   1.416       .  A
C731        C738   1.451       .  S
C732        C733   1.416       .  A
C733        C734   1.419       .  A
C733        C736   1.451       .  S
C734        C737   1.451       .  S
C735        N742   1.157       .  T
C736        N741   1.157       .  T
C737        N739   1.157       .  T
C738        N740   1.158       .  T
C743        C744   1.414       .  A
C743        C748   1.413       .  A
C744        C745   1.414       .  A
C744        C749   1.451       .  S
C745        C746   1.415       .  A
C745        C752   1.451       .  S
C746        C747   1.414       .  A
C747        C748   1.412       .  A
C747        C750   1.451       .  S
C748        C751   1.450       .  S
C749        N756   1.157       .  T
C750        N755   1.157       .  T
C751        N753   1.157       .  T
C752        N754   1.157       .  T
C757        C758   1.415       .  A
C757        C762   1.416       .  A
C758        C759   1.411       .  A
C758        C763   1.453       .  S
C759        C760   1.416       .  A
C759        C766   1.453       .  S
C760        C761   1.414       .  A
C761        C762   1.414       .  A
C761        C764   1.451       .  S
C762        C765   1.451       .  S
C763        N770   1.157       .  T
C764        N769   1.157       .  T
C765        N767   1.157       .  T
C766        N768   1.158       .  T
C771        C776   1.415       .  A
C771       C1892   1.415       .  A
C772        C773   1.417       .  A
C772       C1891   1.415   1_545  A
C772        C777   1.451       .  S
C773        C774   1.415   1_545  A
C773        C780   1.451       .  S
C774       C1895   1.415       .  A
C775        C776   1.416       .  A
C775       C1894   1.416       .  A
C775        C778   1.451       .  S
C776        C779   1.452       .  S
C777        N784   1.157       .  T
C778        N783   1.157       .  T
C779        N781   1.157       .  T
C780        N782   1.157       .  T
C785        C786   1.415       .  A
C785       C3030   1.415       .  A
C786        C787   1.414       .  A
C786        C791   1.452       .  S
C787        C788   1.416       .  A
C787        C794   1.452       .  S
C788       C3029   1.414       .  A
C789        C790   1.418       .  A
C789       C3028   1.414       .  A
C789        C792   1.448       .  S
C790       C3025   1.415       .  A
C790        C793   1.449       .  S
C791        N798   1.157       .  T
C792        N797   1.157       .  T
C793        N795   1.157       .  T
C794        N796   1.157       .  T
C799        C804   1.414       .  A
C799       C3040   1.415       .  A
C800        C801   1.413       .  A
C800       C3039   1.415       .  A
C800        C805   1.451       .  S
C801       C3042   1.414       .  A
C801        C808   1.452       .  S
C802        C803   1.414       .  A
C802       C3041   1.414       .  A
C803        C804   1.415       .  A
C803        C806   1.451       .  S
C804        C807   1.451       .  S
C805        N812   1.157       .  T
C806        N811   1.157       .  T
C807        N809   1.157       .  T
C808        N810   1.157       .  T
C813        C814   1.414       .  A
C813       C3058   1.414       .  A
C814        C815   1.412       .  A
C814        C819   1.451       .  S
C815        C816   1.414       .  A
C815        C822   1.452       .  S
C816       C3057   1.414       .  A
C817        C818   1.413       .  A
C817       C3056   1.414       .  A
C817        C820   1.451       .  S
C818       C3053   1.414       .  A
C818        C821   1.451       .  S
C819        N826   1.157       .  T
C820        N825   1.157   1_455  T
C821        N823   1.157   1_455  T
C822        N824   1.157       .  T
C827       C1948   1.417       .  A
C827       C3072   1.415   1_545  A
C828        C829   1.416       .  A
C828       C1947   1.416       .  A
C828        C833   1.452       .  S
C829       C1950   1.415       .  A
C829        C836   1.451       .  S
C830       C1949   1.416       .  A
C830       C3071   1.415   1_545  A
C831        C832   1.419       .  A
C831       C3070   1.415   1_565  A
C831        C834   1.448       .  S
C832       C3067   1.414   1_565  A
C832        C835   1.449       .  S
C833        N840   1.157       .  T
C834        N839   1.156       .  T
C835        N837   1.157       .  T
C836        N838   1.157       .  T
C841        C842   1.424       .  A
C841        C846   1.427       .  A
C842        C843   1.416       .  A
C842        C847   1.451       .  S
C843        C844   1.412       .  A
C843        C850   1.452       .  S
C844        C845   1.409       .  A
C845        C846   1.419       .  A
C845        C848   1.452       .  S
C846        C849   1.450       .  S
C847        N854   1.158       .  T
C848        N853   1.157       .  T
C849        N851   1.158       .  T
C850        N852   1.157       .  T
C855        C856   1.414       .  A
C855        C860   1.414       .  A
C856        C857   1.414       .  A
C856        C861   1.451       .  S
C857        C858   1.416       .  A
C857        C864   1.452       .  S
C858        C859   1.414       .  A
C859        C860   1.412       .  A
C859        C862   1.448       .  S
C860        C863   1.453       .  S
C861        N868   1.157       .  T
C862        N867   1.156       .  T
C863        N865   1.157       .  T
C864        N866   1.158       .  T
C869        C870   1.413       .  A
C869        C874   1.414       .  A
C870        C871   1.417       .  A
C870        C875   1.451       .  S
C871        C872   1.415       .  A
C871        C878   1.450       .  S
C872        C873   1.415       .  A
C873        C874   1.414       .  A
C873        C876   1.451       .  S
C874        C877   1.452       .  S
C875        N882   1.157       .  T
C876        N881   1.157       .  T
C877        N879   1.157       .  T
C878        N880   1.157       .  T
C883        C884   1.419   1_565  A
C883       C2008   1.418       .  A
C884        C885   1.416       .  A
C884        C889   1.451       .  S
C885        C886   1.413   1_545  A
C885        C892   1.451       .  S
C886       C2007   1.415       .  A
C887        C888   1.415       .  A
C887       C2006   1.415       .  A
C887        C890   1.452       .  S
C888       C2003   1.418       .  A
C888        C891   1.452       .  S
C889        N896   1.157       .  T
C890        N895   1.157       .  T
C891        N893   1.158       .  T
C892        N894   1.157       .  T
C897        C898   1.422       .  A
C897       C3142   1.418       .  A
C898        C899   1.418       .  A
C898        C903   1.451       .  S
C899        C900   1.412       .  A
C899        C906   1.451       .  S
C900       C3141   1.417       .  A
C901        C902   1.418       .  A
C901       C3140   1.417       .  A
C901        C904   1.452       .  S
C902       C3137   1.418       .  A
C902        C905   1.451       .  S
C903        N910   1.157       .  T
C904        N909   1.157       .  T
C905        N907   1.158       .  T
C906        N908   1.157       .  T
C911        C916   1.412       .  A
C911       C3152   1.413       .  A
C912        C913   1.412       .  A
C912       C3151   1.413       .  A
C912        C917   1.452       .  S
C913       C3154   1.415       .  A
C913        C920   1.451       .  S
C914        C915   1.415       .  A
C914       C3153   1.415       .  A
C915        C916   1.412       .  A
C915        C918   1.451       .  S
C916        C919   1.451       .  S
C917        N924   1.157       .  T
C918        N923   1.157       .  T
C919        N921   1.157       .  T
C920        N922   1.158       .  T
C925        C926   1.414       .  A
C925       C3170   1.416       .  A
C926        C927   1.415       .  A
C926        C931   1.451       .  S
C927        C928   1.414       .  A
C927        C934   1.451       .  S
C928       C3169   1.414       .  A
C929        C930   1.415       .  A
C929       C3168   1.414       .  A
C929        C932   1.452       .  S
C930       C3165   1.416       .  A
C930        C933   1.452       .  S
C931        N938   1.157       .  T
C932        N937   1.157       .  T
C933        N935   1.158       .  T
C934        N936   1.157       .  T
C939       C3180   1.427   1_565  A
C939       C2064   1.425       .  A
C940        C941   1.418       .  A
C940       C3179   1.428   1_545  A
C940        C945   1.451       .  S
C941       C3182   1.408   1_545  A
C941        C948   1.451       .  S
C942       C3181   1.408   1_565  A
C942       C2063   1.412       .  A
C943        C944   1.419       .  A
C943       C2062   1.412       .  A
C943        C946   1.452       .  S
C944       C2059   1.425       .  A
C944        C947   1.451       .  S
C945        N952   1.158       .  T
C946        N951   1.157       .  T
C947        N949   1.158       .  T
C948        N950   1.157       .  T
C953        C954   1.419       .  A
C953        C958   1.419       .  A
C954        C955   1.414       .  A
C954        C959   1.451       .  S
C955        C956   1.417       .  A
C955        C962   1.451       .  S
C956        C957   1.418       .  A
C957        C958   1.412       .  A
C957        C960   1.453       .  S
C958        C961   1.453       .  S
C959        N966   1.157       .  T
C960        N965   1.158       .  T
C961        N963   1.158       .  T
C962        N964   1.157       .  T
C967        C968   1.418       .  A
C967        C972   1.417       .  A
C968        C969   1.413       .  A
C968        C973   1.451       .  S
C969        C970   1.417       .  A
C969        C976   1.451       .  S
C970        C971   1.414       .  A
C971        C972   1.410       .  A
C971        C974   1.453       .  S
C972        C975   1.452       .  S
C973        N980   1.157       .  T
C974        N979   1.157       .  T
C975        N977   1.158       .  T
C976        N978   1.158       .  T
C981        C982   1.414       .  A
C981       C2106   1.414       .  A
C982        C983   1.415       .  A
C982        C987   1.451       .  S
C983        C984   1.414       .  A
C983        C990   1.451       .  S
C984       C2105   1.415       .  A
C985        C986   1.415       .  A
C985       C2104   1.416       .  A
C985        C988   1.452   1_565  S
C986       C2101   1.414       .  A
C986        C989   1.452   1_565  S
C987        N994   1.157       .  T
C988        N993   1.157       .  T
C989        N991   1.158       .  T
C990        N992   1.157       .  T
C995        C996   1.414       .  A
C995       C2120   1.413       .  A
C996        C997   1.414       .  A
C996       C1001   1.452       .  S
C997        C998   1.415       .  A
C997       C1004   1.451       .  S
C998       C2119   1.414       .  A
C999       C1000   1.412       .  A
C999       C2118   1.414       .  A
C999       C1002   1.452   1_565  S
C1000      C2115   1.414       .  A
C1000      C1003   1.452   1_565  S
C1001      N1008   1.157       .  T
C1002      N1007   1.157       .  T
C1003      N1005   1.158       .  T
C1004      N1006   1.158       .  T
C1009      C1010   1.417       .  A
C1009      C1014   1.417       .  A
C1010      C1011   1.418       .  A
C1010      C1015   1.451       .  S
C1011      C1012   1.415       .  A
C1011      C1018   1.449       .  S
C1012      C1013   1.417       .  A
C1013      C1014   1.419       .  A
C1013      C1016   1.451       .  S
C1014      C1017   1.451       .  S
C1015      N1022   1.157       .  T
C1016      N1021   1.157       .  T
C1017      N1019   1.157       .  T
C1018      N1020   1.157       .  T
C1023      C1024   1.413       .  A
C1023      C1028   1.413       .  A
C1024      C1025   1.412       .  A
C1024      C1029   1.452       .  S
C1025      C1026   1.414       .  A
C1025      C1032   1.452       .  S
C1026      C1027   1.413       .  A
C1027      C1028   1.412       .  A
C1027      C1030   1.452       .  S
C1028      C1031   1.452       .  S
C1029      N1036   1.158       .  T
C1030      N1035   1.157       .  T
C1031      N1033   1.157       .  T
C1032      N1034   1.157       .  T
C1037      C1038   1.415       .  A
C1037      C1042   1.416       .  A
C1038      C1039   1.415       .  A
C1038      C1043   1.452       .  S
C1039      C1040   1.416       .  A
C1039      C1046   1.452       .  S
C1040      C1041   1.415       .  A
C1041      C1042   1.415       .  A
C1041      C1044   1.451       .  S
C1042      C1045   1.452       .  S
C1043      N1050   1.157       .  T
C1044      N1049   1.157       .  T
C1045      N1047   1.157       .  T
C1046      N1048   1.157       .  T
C1051      C1056   1.419   1_565  A
C1051      C2172   1.417       .  A
C1052      C1053   1.418       .  A
C1052      C2171   1.420       .  A
C1052      C1057   1.451       .  S
C1053      C1054   1.415       .  A
C1053      C1060   1.452       .  S
C1054      C2175   1.414       .  A
C1055      C1056   1.417       .  A
C1055      C2174   1.414   1_545  A
C1055      C1058   1.451       .  S
C1056      C1059   1.451       .  S
C1057      N1064   1.157       .  T
C1058      N1063   1.157       .  T
C1059      N1061   1.157       .  T
C1060      N1062   1.157       .  T
C1065      C1066   1.412       .  A
C1065      C3310   1.415       .  A
C1066      C1067   1.417       .  A
C1066      C1071   1.451       .  S
C1067      C1068   1.419       .  A
C1067      C1074   1.449       .  S
C1068      C3309   1.419       .  A
C1069      C1070   1.417       .  A
C1069      C3308   1.420       .  A
C1069      C1072   1.451       .  S
C1070      C3305   1.414       .  A
C1070      C1073   1.452       .  S
C1071      N1078   1.157       .  T
C1072      N1077   1.158       .  T
C1073      N1075   1.157       .  T
C1074      N1076   1.157       .  T
C1079      C1080   1.414       .  A
C1079      C3324   1.415       .  A
C1080      C1081   1.413       .  A
C1080      C1085   1.452       .  S
C1081      C1082   1.416       .  A
C1081      C1088   1.452       .  S
C1082      C3323   1.415       .  A
C1083      C1084   1.413       .  A
C1083      C3322   1.415       .  A
C1083      C1086   1.452       .  S
C1084      C3319   1.415       .  A
C1084      C1087   1.452       .  S
C1085      N1092   1.157       .  T
C1086      N1091   1.157       .  T
C1087      N1089   1.158       .  T
C1088      N1090   1.158       .  T
C1093      C1094   1.413       .  A
C1093      C3338   1.414       .  A
C1094      C1095   1.413       .  A
C1094      C1099   1.450       .  S
C1095      C1096   1.413       .  A
C1095      C1102   1.451       .  S
C1096      C3337   1.413       .  A
C1097      C1098   1.415       .  A
C1097      C3336   1.413       .  A
C1097      C1100   1.450       .  S
C1098      C3333   1.414       .  A
C1098      C1101   1.450       .  S
C1099      N1106   1.157       .  T
C1100      N1105   1.157       .  T
C1101      N1103   1.157       .  T
C1102      N1104   1.157       .  T
C1107      C2228   1.420       .  A
C1107      C3352   1.419       .  A
C1108      C1109   1.417       .  A
C1108      C2227   1.418   1_545  A
C1108      C1113   1.451       .  S
C1109      C2230   1.414   1_545  A
C1109      C1116   1.451       .  S
C1110      C2251   1.501       .  S
C1110      C2229   1.413       .  A
C1110      C3351   1.416       .  A
C1111      C1112   1.417       .  A
C1111      C3350   1.416       .  A
C1111      C1114   1.452       .  S
C1112      C3347   1.419       .  A
C1112      C1115   1.451       .  S
C1113      N1120   1.157       .  T
C1114      N1119   1.157       .  T
C1115      N1117   1.157       .  T
C1116      N1118   1.157       .  T
O1121      C2251   1.267       .  A
O1122      V1129   1.906       .  S
O1122      C2252   1.265       .  A
O1123      V1129   1.904   1_565  S
O1123      C1133   1.266       .  A
O1124      C1134   1.266       .  A
O1125      C3374   1.265       .  A
O1126      V1130   1.905   1_565  S
O1126      C3373   1.265       .  A
O1127      C1132   1.267       .  A
O1128      V1130   1.907       .  S
O1128      C1131   1.267       .  A
V1129      V3370   2.085       .  T
V1130      V3369   2.085   1_455  T
C1131      O2241   1.266   1_455  A
C1131      C4470   1.497   1_545  S
C1132      O2242   1.266       .  A
C1132      C3764   1.481       .  S
C1133      O3366   1.265       .  A
C1133      C2199   1.491       .  S
C1134      O3365   1.266       .  A
C1134      C2213   1.492       .  S
O1135      V1143   1.910       .  S
O1135      C3385   1.267       .  A
O1136      V1143   1.911       .  S
O1136      C3386   1.267       .  A
O1137      V1143   1.905       .  S
O1137      C3387   1.266       .  A
O1138      V1143   1.908       .  S
O1138      C3388   1.266       .  A
O1139      V1144   1.902       .  S
O1139      C1148   1.265       .  A
O1140      V1144   1.904       .  S
O1140      C1147   1.265       .  A
O1141      V1144   1.904       .  S
O1141      C1146   1.265       .  A
O1142      V1144   1.905       .  S
O1142      C1145   1.265       .  A
V1143      V3384   2.085       .  T
V1144      V3383   2.086       .  T
C1145      O3375   1.267       .  A
C1145      C2185   1.495       .  S
C1146      O3376   1.266       .  A
C1146      C1538   1.475       .  S
C1147      O3377   1.266       .  A
C1147      C2202   1.492       .  S
C1148      O3378   1.266       .  A
C1148      C2216   1.491       .  S
O1150      V1157   1.906       .  S
O1150      C1160   1.265       .  A
O1151      V1157   1.909       .  S
O1151      C1161   1.267       .  A
O1152      C1162   1.266       .  A
O1153      C1162   1.263       .  A
O1154      V1158   1.902       .  S
O1154      C1161   1.265       .  A
O1156      V1158   1.916       .  S
O1156      C1159   1.269       .  A
V1157      V1158   2.085       .  T
C1159      C2171   1.509       .  S
C1160      C1552   1.481       .  S
C1161      C2160   1.498       .  S
C1162      C2143   1.484       .  S
O1163      V1171   1.902       .  S
O1163      C1173   1.265       .  A
O1164      V1171   1.903       .  S
O1164      C1174   1.265       .  A
O1165      V1171   1.901       .  S
O1165      C1175   1.265       .  A
O1166      V1171   1.905       .  S
O1166      C1176   1.266       .  A
O1167      V1172   1.904       .  S
O1167      C1176   1.265       .  A
O1168      V1172   1.901       .  S
O1168      C1175   1.264       .  A
O1169      V1172   1.917       .  S
O1169      C1174   1.268       .  A
O1170      V1172   1.917       .  S
O1170      C1173   1.269       .  A
V1171      V1172   2.085       .  T
C1173      C2129   1.509       .  S
C1174      C1566   1.480       .  S
C1175      C2146   1.484       .  S
C1176      C2157   1.496       .  S
O1177      V3425   1.908       .  S
O1177      C3427   1.267   1_655  A
O1178      V1185   1.908       .  S
O1178      C1188   1.265       .  A
O1179      V1185   1.903       .  S
O1179      C1189   1.265       .  A
O1180      V3425   1.902   1_455  S
O1180      C1190   1.264       .  A
O1181      V3426   1.905   1_455  S
O1182      V1186   1.908       .  S
O1183      V3426   1.903       .  S
O1183      C2308   1.265       .  A
O1184      V1186   1.905       .  S
V1185      O3417   1.908       .  S
V1185      O3420   1.902       .  S
V1186      O3421   1.905       .  S
V1186      O3423   1.903       .  S
C1187      O3417   1.267       .  A
C1187      C2227   1.503       .  S
C1188      O2303   1.265   1_565  A
C1188      C1468   1.474       .  S
C1189      C2101   1.491       .  S
C1190      C2115   1.489       .  S
O1191      V3439   1.909       .  S
O1191      C3441   1.267       .  A
O1192      V1199   1.906       .  S
O1192      C1202   1.266       .  A
O1193      V1199   1.902       .  S
O1193      C1203   1.265       .  A
O1194      V3439   1.895   1_455  S
O1194      C1204   1.264       .  A
O1195      V3440   1.901   1_455  S
O1195      C1204   1.264       .  A
O1196      V1200   1.901       .  S
O1196      C1203   1.266       .  A
O1197      V3440   1.908       .  S
O1197      C3442   1.265       .  A
O1198      V1200   1.906       .  S
O1198      C1201   1.266       .  A
V1199      O3431   1.909       .  S
V1199      O3434   1.895       .  S
V1199      V1200   2.084       .  T
V1200      O3435   1.900       .  S
V1200      O3437   1.907       .  S
C1201      O3431   1.267       .  A
C1201      C2188   1.503       .  S
C1202      O3437   1.265       .  A
C1202      C1482   1.475       .  S
C1203      C2073   1.506       .  S
C1204      C2087   1.481       .  S
O1205      V1213   1.909       .  S
O1205      C1215   1.267       .  A
O1206      V1213   1.908       .  S
O1206      C1216   1.265       .  A
O1207      V1213   1.904       .  S
O1207      C1217   1.265       .  A
O1208      V1213   1.907       .  S
O1208      C1218   1.266       .  A
O1209      V1214   1.904       .  S
O1210      V1214   1.903       .  S
O1211      V1214   1.903       .  S
O1212      V1214   1.906       .  S
C1215      C2174   1.499       .  S
C1217      C2118   1.489       .  S
C1218      C2104   1.491       .  S
O1219      V1227   1.909       .  S
O1219      C1229   1.266       .  A
O1220      V1227   1.906       .  S
O1220      C1230   1.265       .  A
O1221      V1227   1.900       .  S
O1221      C1231   1.265       .  A
O1222      V1227   1.905       .  S
O1222      C1232   1.266       .  A
O1223      V1228   1.900       .  S
O1223      C1232   1.266       .  A
O1224      V1228   1.896       .  S
O1224      C1231   1.263       .  A
O1225      V1228   1.909       .  S
O1225      C1230   1.266       .  A
O1226      V1228   1.911       .  S
O1226      C1229   1.267       .  A
V1227      V1228   2.083       .  T
C1229      C2132   1.497       .  S
C1230      C1510   1.476       .  S
C1231      C2090   1.482       .  S
C1232      C2076   1.505       .  S
O1233      V1241   1.921       .  S
O1233      C3483   1.269       .  A
O1234      C2364   1.268       .  A
O1235      C3485   1.264       .  A
O1236      V1241   1.902       .  S
O1236      C3486   1.265       .  A
O1237      V1242   1.911       .  S
O1237      C1246   1.267       .  A
O1238      C1245   1.266       .  A
O1239      V1242   1.904       .  S
O1239      C1244   1.265       .  A
V1241      V3482   2.085       .  T
V1242      V3481   2.085       .  T
C1243      O3473   1.269       .  A
C1243      C2062   1.499       .  S
C1244      O2354   1.269       .  A
C1244      C1300   1.484       .  S
C1245      O3475   1.264       .  A
C1245      C2034   1.488       .  S
C1246      O3476   1.265       .  A
C1246      C2045   1.495       .  S
O1247      V1255   1.905       .  S
O1247      C1257   1.266       .  A
O1248      V1255   1.902       .  S
O1248      C1258   1.265       .  A
O1249      V1255   1.902       .  S
O1249      C1259   1.265       .  A
O1250      V1255   1.908       .  S
O1250      C1260   1.266       .  A
O1251      V1256   1.906       .  S
O1251      C3500   1.266       .  A
O1252      V1256   1.902       .  S
O1252      C3499   1.264       .  A
O1253      V1256   1.919       .  S
O1253      C3498   1.268       .  A
O1254      V1256   1.919       .  S
O1254      C3497   1.270       .  A
V1255      V3496   2.085       .  T
V1256      V3495   2.085       .  T
C1257      O3494   1.269       .  A
C1257      C2017   1.506       .  S
C1258      O3493   1.267       .  A
C1258      C1314   1.480       .  S
C1259      O3492   1.264       .  A
C1259      C2031   1.486       .  S
C1260      O3491   1.266       .  A
C1260      C2048   1.495       .  S
O1261      V1269   1.909       .  S
O1261      C1271   1.267       .  A
O1263      C1273   1.265       .  A
O1264      V1269   1.900       .  S
O1264      C1274   1.263       .  A
O1265      V1270   1.912       .  S
O1265      C1274   1.267       .  A
O1266      C1273   1.266       .  A
O1267      V1270   1.907       .  S
O1267      C1272   1.265       .  A
V1269      V1270   2.086       .  T
C1271      C2003   1.502       .  S
C1273      C1975   1.492       .  S
C1274      C1989   1.488       .  S
O1275      V1283   1.907       .  S
O1275      C1285   1.266       .  A
O1276      V1283   1.902       .  S
O1276      C1286   1.265       .  A
O1277      V1283   1.907       .  S
O1277      C1287   1.266       .  A
O1278      V1283   1.907       .  S
O1278      C1288   1.266       .  A
O1279      V1284   1.904       .  S
O1279      C1288   1.265       .  A
O1280      V1284   1.910       .  S
O1280      C1287   1.266       .  A
O1281      V1284   1.917       .  S
O1281      C1286   1.268       .  A
O1282      V1284   1.914       .  S
O1282      C1285   1.269       .  A
V1283      V1284   2.083       .  T
C1285      C1961   1.517       .  S
C1286      C1342   1.480       .  S
C1287      C1992   1.491       .  S
C1288      C1978   1.495       .  S
O1289      V1297   1.906       .  S
O1289      C1299   1.266       .  A
O1291      C1301   1.266       .  A
O1292      V1297   1.905       .  S
O1292      C1302   1.265       .  A
O1293      V1298   1.903       .  S
O1293      C3542   1.265       .  A
O1294      C3541   1.265       .  A
O1295      V1298   1.920       .  S
O1295      C3540   1.268       .  A
O1296      C2419   1.269   1_565  A
V1297      V3538   2.085       .  T
V1298      V3537   2.085       .  T
C1299      O2416   1.269       .  A
C1299      C1950   1.503       .  S
C1300      O3535   1.268       .  A
C1301      O3534   1.265       .  A
C1301      C1922   1.491       .  S
C1302      O3533   1.265       .  A
C1302      C1933   1.489       .  S
O1303      V1311   1.902       .  S
O1303      C1313   1.264       .  A
O1304      V1311   1.900       .  S
O1304      C1314   1.264       .  A
O1305      V1311   1.905       .  S
O1305      C1315   1.265       .  A
O1306      V1311   1.907       .  S
O1306      C1316   1.267       .  A
O1307      V1312   1.903       .  S
O1307      C3556   1.265       .  A
O1308      V1312   1.902       .  S
O1308      C3555   1.265       .  A
O1309      V1312   1.920       .  S
O1309      C3554   1.268       .  A
O1310      V1312   1.919       .  S
O1310      C3553   1.269       .  A
V1311      V3552   2.085       .  T
V1312      V3551   2.085       .  T
C1313      O3550   1.269       .  A
C1313      C1905   1.499       .  S
C1314      O3549   1.268       .  A
C1315      O3548   1.265       .  A
C1315      C1936   1.488       .  S
C1316      O3547   1.265       .  A
C1316      C1919   1.492       .  S
O1318      V1325   1.911       .  S
O1318      C1328   1.266       .  A
O1319      V1325   1.906       .  S
O1319      C1329   1.266       .  A
O1320      C1330   1.265       .  A
O1321      C1330   1.266       .  A
O1322      V1326   1.902       .  S
O1322      C1329   1.265       .  A
O1324      V1326   1.903       .  S
O1324      C1327   1.265       .  A
V1325      V1326   2.086       .  T
C1327      C1891   1.495       .  S
C1329      C1863   1.492       .  S
C1330      C1877   1.493       .  S
O1331      V1339   1.905       .  S
O1331      C1341   1.265       .  A
O1332      V1339   1.901       .  S
O1332      C1342   1.264       .  A
O1333      V1339   1.905       .  S
O1333      C1343   1.266       .  A
O1334      V1339   1.905       .  S
O1334      C1344   1.266       .  A
O1335      V1340   1.898       .  S
O1335      C1344   1.264       .  A
O1336      V1340   1.902       .  S
O1336      C1343   1.265       .  A
O1337      V1340   1.919       .  S
O1337      C1342   1.268       .  A
O1338      V1340   1.917       .  S
O1338      C1341   1.269       .  A
V1339      V1340   2.086       .  T
C1341      C1849   1.500       .  S
C1343      C1866   1.491       .  S
C1344      C1880   1.493       .  S
O1345      V1353   1.903       .  S
O1345      C1355   1.265       .  A
O1346      V3593   1.905       .  S
O1346      C3596   1.265       .  A
O1347      V3593   1.905   1_455  S
O1347      C1357   1.265       .  A
O1348      V1353   1.905       .  S
O1348      C1358   1.266       .  A
O1349      V1354   1.905       .  S
O1350      V3594   1.904   1_455  S
O1351      V1354   1.912       .  S
O1352      V3594   1.910       .  S
O1352      C2475   1.267       .  A
V1353      O3586   1.905       .  S
V1353      O3587   1.905       .  S
V1354      O3590   1.905       .  S
V1354      O3592   1.911       .  S
C1355      O2472   1.267       .  A
C1355      C1835   1.497       .  S
C1356      O3586   1.265       .  A
C1356      C1412   1.478       .  S
C1357      C1821   1.491       .  S
C1358      C1810   1.489       .  S
O1359      V1367   1.917       .  S
O1359      C1369   1.269       .  A
O1360      V3607   1.917       .  S
O1360      C3610   1.268       .  A
O1361      V3607   1.903   1_455  S
O1361      C1371   1.265       .  A
O1362      V1367   1.899       .  S
O1362      C1372   1.264       .  A
O1363      V1368   1.907       .  S
O1363      C1372   1.266       .  A
O1364      V3608   1.908   1_455  S
O1364      C1371   1.266       .  A
O1365      V1368   1.897       .  S
O1365      C1370   1.263       .  A
O1366      V3608   1.900       .  S
O1366      C3609   1.264       .  A
V1367      O3600   1.918       .  S
V1367      O3601   1.903       .  S
V1367      V1368   2.086       .  T
V1368      O3604   1.906       .  S
V1368      O3606   1.897       .  S
C1369      O3606   1.264       .  A
C1369      C1793   1.509       .  S
C1370      O3600   1.268       .  A
C1370      C1426   1.477       .  S
C1371      C1782   1.491       .  S
C1372      C1765   1.489       .  S
O1373      V1381   1.900       .  S
O1373      C1383   1.264       .  A
O1374      V1381   1.899       .  S
O1374      C1384   1.264       .  A
O1375      V1381   1.904       .  S
O1375      C1385   1.266       .  A
O1376      V1381   1.905       .  S
O1376      C1386   1.265       .  A
O1377      V1382   1.904       .  S
O1378      V1382   1.903       .  S
O1379      V1382   1.910       .  S
O1380      V1382   1.909       .  S
C1383      C1751   1.490       .  S
C1384      C1440   1.470       .  S
C1385      C1807   1.489       .  S
C1386      C1824   1.491       .  S
O1387      V1395   1.914       .  S
O1387      C1397   1.267       .  A
O1388      V1395   1.913       .  S
O1388      C1398   1.266       .  A
O1389      V1395   1.905       .  S
O1389      C1399   1.266       .  A
O1390      V1395   1.906       .  S
O1390      C1400   1.266       .  A
O1391      V1396   1.906       .  S
O1391      C1400   1.266       .  A
O1392      V1396   1.901       .  S
O1392      C1399   1.264       .  A
O1393      V1396   1.901       .  S
O1393      C1398   1.265       .  A
O1394      V1396   1.901       .  S
O1394      C1397   1.265       .  A
V1395      V1396   2.086       .  T
C1397      C1740   1.492       .  S
C1398      C1454   1.475       .  S
C1399      C1768   1.490       .  S
C1400      C1779   1.491       .  S
O1401      V1409   1.913       .  S
O1402      V3649   1.910       .  S
O1402      C2532   1.266       .  A
O1403      V3649   1.902   1_455  S
O1404      V1409   1.907       .  S
O1405      V1410   1.906       .  S
O1405      C1414   1.266       .  A
O1406      V3650   1.905   1_455  S
O1406      C1413   1.266       .  A
O1407      V1410   1.907       .  S
O1407      C1412   1.266       .  A
O1408      V3650   1.912       .  S
O1408      C3651   1.267   1_655  A
V1409      O3642   1.911       .  S
V1409      O3643   1.903       .  S
V1410      O3646   1.905       .  S
V1410      O3648   1.912       .  S
C1411      O3648   1.267       .  A
C1411      C2059   1.522       .  S
C1412      O2522   1.266       .  A
C1413      C1726   1.489       .  S
C1414      C1712   1.497       .  S
O1415      V1423   1.905       .  S
O1415      C1425   1.265       .  A
O1416      V3663   1.903   1_655  S
O1416      C3666   1.265   1_655  A
O1417      V3663   1.901       .  S
O1417      C1427   1.265       .  A
O1418      V1423   1.906       .  S
O1418      C1428   1.266       .  A
O1419      V1424   1.904       .  S
O1419      C1428   1.265       .  A
O1420      V3664   1.899       .  S
O1420      C1427   1.264       .  A
O1421      V1424   1.916       .  S
O1421      C1426   1.267       .  A
O1422      V3664   1.916       .  S
O1422      C3665   1.269       .  A
V1423      O3656   1.899       .  S
V1423      O3657   1.902       .  S
V1423      V1424   2.086       .  T
V1424      O3660   1.900       .  S
V1424      O3662   1.916       .  S
C1425      O3662   1.269       .  A
C1425      C2020   1.503       .  S
C1426      O3656   1.264       .  A
C1427      C1698   1.487       .  S
C1428      C1681   1.495       .  S
O1429      V1437   1.908       .  S
O1430      V1437   1.906       .  S
O1431      V1437   1.907       .  S
O1431      C1441   1.267       .  A
O1432      V1437   1.902       .  S
O1432      C1442   1.264       .  A
O1433      V1438   1.897       .  S
O1434      V1438   1.900       .  S
O1435      V1438   1.902       .  S
O1435      C1440   1.265       .  A
O1436      V1438   1.906       .  S
O1436      C1439   1.266       .  A
C1439      C2006   1.498       .  S
O1443      V1451   1.903       .  S
O1443      C1453   1.264       .  A
O1444      V1451   1.900       .  S
O1444      C1454   1.264       .  A
O1445      V1451   1.911       .  S
O1445      C1455   1.267       .  A
O1446      V1451   1.902       .  S
O1446      C1456   1.265       .  A
O1447      V1452   1.897       .  S
O1447      C1456   1.264       .  A
O1448      V1452   1.901       .  S
O1448      C1455   1.265       .  A
O1449      V1452   1.914       .  S
O1449      C1454   1.267       .  A
O1450      V1452   1.915       .  S
O1450      C1453   1.268       .  A
V1451      V1452   2.086       .  T
C1453      C1964   1.493       .  S
C1455      C1684   1.495       .  S
C1456      C1695   1.488       .  S
O1457      V3705   1.903       .  S
O1457      C3707   1.265       .  A
O1458      V1465   1.904       .  S
O1459      V1465   1.907       .  S
O1460      V3705   1.906   1_455  S
O1461      V3706   1.904   1_455  S
O1461      C1470   1.265       .  A
O1462      V1466   1.904       .  S
O1462      C1469   1.265       .  A
O1463      V3706   1.910       .  S
O1463      C3708   1.266       .  A
O1464      V1466   1.911       .  S
V1465      O3697   1.904       .  S
V1465      O3700   1.906       .  S
V1466      O3701   1.905       .  S
V1466      O3703   1.909       .  S
C1467      O3697   1.265       .  A
C1467      C1838   1.498       .  S
C1468      O3703   1.266       .  A
O1471      V1479   1.905       .  S
O1471      C1481   1.267       .  A
O1472      V3719   1.905       .  S
O1472      C3722   1.265       .  A
O1473      V3719   1.904   1_455  S
O1473      C1483   1.266       .  A
O1474      V1479   1.904       .  S
O1474      C1484   1.265       .  A
O1475      V1480   1.896       .  S
O1475      C1484   1.264       .  A
O1476      V3720   1.896   1_455  S
O1476      C1483   1.264       .  A
O1477      V1480   1.910       .  S
O1477      C1482   1.267       .  A
O1478      V3720   1.913       .  S
O1478      C3721   1.267       .  A
V1479      O3712   1.903       .  S
V1479      O3713   1.904       .  S
V1479      V1480   2.085       .  T
V1480      O3716   1.902       .  S
V1480      O3718   1.911       .  S
C1481      O3718   1.267       .  A
C1481      C1796   1.511       .  S
C1482      O3712   1.264       .  A
C1483      C1639   1.507       .  S
C1484      C1625   1.485       .  S
O1485      V1493   1.909       .  S
O1486      V1493   1.909       .  S
O1487      V1493   1.902       .  S
O1488      V1493   1.904       .  S
O1489      V1494   1.904       .  S
O1489      C1498   1.265       .  A
O1490      V1494   1.907       .  S
O1490      C1497   1.266       .  A
O1491      V1494   1.903       .  S
O1491      C1496   1.265       .  A
O1492      V1494   1.901       .  S
O1492      C1495   1.265       .  A
C1495      C1754   1.491       .  S
C1497      C1656   1.489       .  S
C1498      C1670   1.491       .  S
O1499      V1507   1.911       .  S
O1499      C1509   1.266       .  A
O1500      V1507   1.907       .  S
O1500      C1510   1.265       .  A
O1501      V1507   1.899       .  S
O1501      C1511   1.265       .  A
O1502      V1507   1.901       .  S
O1502      C1512   1.265       .  A
O1503      V1508   1.899       .  S
O1503      C1512   1.264       .  A
O1504      V1508   1.902       .  S
O1504      C1511   1.266       .  A
O1505      V1508   1.908       .  S
O1505      C1510   1.266       .  A
O1506      V1508   1.907       .  S
O1506      C1509   1.266       .  A
V1507      V1508   2.082       .  T
C1509      C1737   1.494       .  S
C1511      C1642   1.507       .  S
C1512      C1628   1.486       .  S
O1514      V1521   1.909       .  S
O1514      C1524   1.266       .  A
O1515      V1521   1.894       .  S
O1515      C1525   1.263       .  A
O1516      C1526   1.266       .  A
O1517      C3766   1.263       .  A
O1518      V1522   1.892       .  S
O1518      C3765   1.264       .  A
O1519      C2644   1.266       .  A
O1520      V1522   1.921       .  S
O1520      C3763   1.269       .  A
V1521      V3762   2.083       .  T
V1522      V3761   2.083       .  T
C1523      O3760   1.269       .  A
C1523      C1947   1.502       .  S
C1524      O2639   1.267       .  A
C1524      C3372   1.481       .  S
C1525      O3758   1.264       .  A
C1525      C1611   1.497       .  S
C1526      O3757   1.263       .  A
C1526      C1600   1.498       .  S
O1527      V1535   1.918       .  S
O1527      C3777   1.268       .  A
O1528      V1535   1.910       .  S
O1528      C3778   1.266       .  A
O1529      V1535   1.891       .  S
O1529      C3779   1.263       .  A
O1530      V1535   1.892       .  S
O1530      C3780   1.263       .  A
O1531      V1536   1.901       .  S
O1531      C1540   1.266       .  A
O1532      V1536   1.897       .  S
O1532      C1539   1.264       .  A
O1533      V1536   1.906       .  S
O1533      C1538   1.265       .  A
O1534      V1536   1.905       .  S
O1534      C1537   1.265       .  A
V1535      V3776   2.083       .  T
V1536      V3775   2.083       .  T
C1537      O3767   1.268       .  A
C1537      C1908   1.498       .  S
C1538      O3768   1.265       .  A
C1539      O3769   1.263       .  A
C1539      C1614   1.500       .  S
C1540      O3770   1.263       .  A
C1540      C1597   1.497       .  S
O1542      V1549   1.914       .  S
O1542      C1552   1.267       .  A
O1543      V1549   1.904       .  S
O1543      C1553   1.265       .  A
O1544      C1554   1.266       .  A
O1545      C1554   1.265       .  A
O1546      V1550   1.904       .  S
O1546      C1553   1.265       .  A
O1548      V1550   1.907       .  S
O1548      C1551   1.266       .  A
V1549      V1550   2.085       .  T
C1551      C1894   1.500       .  S
C1553      C1586   1.489       .  S
C1554      C1569   1.490       .  S
O1555      V1563   1.916       .  S
O1555      C1565   1.268       .  A
O1556      V1563   1.916       .  S
O1556      C1566   1.267       .  A
O1557      V1563   1.908       .  S
O1557      C1567   1.266       .  A
O1558      V1563   1.906       .  S
O1558      C1568   1.265       .  A
O1559      V1564   1.903       .  S
O1559      C1568   1.265       .  A
O1560      V1564   1.902       .  S
O1560      C1567   1.264       .  A
O1561      V1564   1.905       .  S
O1561      C1566   1.266       .  A
O1562      V1564   1.907       .  S
O1562      C1565   1.266       .  A
V1563      V1564   2.085       .  T
C1565      C1852   1.500       .  S
C1567      C1572   1.489       .  S
C1568      C1583   1.490       .  S
C1569      C1570   1.414       .  A
C1569      C1574   1.414       .  A
C1570      C1571   1.414       .  A
C1570      C1575   1.451       .  S
C1571      C1572   1.413       .  A
C1571      C1578   1.451       .  S
C1572      C1573   1.414       .  A
C1573      C1574   1.414       .  A
C1573      C1576   1.451       .  S
C1574      C1577   1.451       .  S
C1575      N1582   1.157       .  T
C1576      N1581   1.157       .  T
C1577      N1579   1.157       .  T
C1578      N1580   1.157       .  T
C1583      C1584   1.414       .  A
C1583      C1588   1.414       .  A
C1584      C1585   1.413       .  A
C1584      C1589   1.451       .  S
C1585      C1586   1.413       .  A
C1585      C1592   1.451       .  S
C1586      C1587   1.415       .  A
C1587      C1588   1.414       .  A
C1587      C1590   1.452       .  S
C1588      C1591   1.451       .  S
C1589      N1596   1.157       .  T
C1590      N1595   1.157       .  T
C1591      N1593   1.157       .  T
C1592      N1594   1.157       .  T
C1597      C1598   1.417       .  A
C1597      C3842   1.417       .  A
C1598      C1599   1.412       .  A
C1598      C1603   1.452       .  S
C1599      C1600   1.417       .  A
C1599      C1606   1.452       .  S
C1600      C3841   1.418       .  A
C1601      C3840   1.418       .  A
C1601      C1602   1.411       .  A
C1601      C1604   1.451       .  S
C1602      C3837   1.418       .  A
C1602      C1605   1.450       .  S
C1603      N1610   1.157       .  T
C1604      N1609   1.157       .  T
C1605      N1607   1.157       .  T
C1606      N1608   1.157       .  T
C1611      C1612   1.419       .  A
C1611      C3856   1.418       .  A
C1612      C1613   1.412       .  A
C1612      C1617   1.453       .  S
C1613      C1614   1.420       .  A
C1613      C1620   1.453       .  S
C1614      C3855   1.420       .  A
C1615      C3854   1.420       .  A
C1615      C1616   1.409       .  A
C1615      C1618   1.454       .  S
C1616      C3851   1.418       .  A
C1616      C1619   1.454       .  S
C1617      N1624   1.158       .  T
C1618      N1623   1.158       .  T
C1619      N1621   1.157       .  T
C1620      N1622   1.157       .  T
C1625      C1626   1.413       .  A
C1625      C1630   1.413       .  A
C1626      C1627   1.410       .  A
C1626      C1631   1.452       .  S
C1627      C1628   1.414       .  A
C1627      C1634   1.452       .  S
C1628      C1629   1.415       .  A
C1629      C1630   1.412       .  A
C1629      C1632   1.452       .  S
C1630      C1633   1.452       .  S
C1631      N1638   1.157       .  T
C1632      N1637   1.157       .  T
C1633      N1635   1.158       .  T
C1634      N1636   1.157       .  T
C1639      C1640   1.420       .  A
C1639      C1644   1.422       .  A
C1640      C1641   1.415       .  A
C1640      C1645   1.453       .  S
C1641      C1642   1.421       .  A
C1641      C1648   1.453       .  S
C1642      C1643   1.420       .  A
C1643      C1644   1.414       .  A
C1643      C1646   1.453       .  S
C1644      C1647   1.453       .  S
C1645      N1652   1.158       .  T
C1646      N1651   1.157       .  T
C1647      N1649   1.157       .  T
C1648      N1650   1.158       .  T
C1653      C1654   1.414       .  A
C1654      C1655   1.415       .  A
C1654      C1659   1.451       .  S
C1655      C1656   1.415       .  A
C1655      C1662   1.451       .  S
C1657      C1658   1.413       .  A
C1657      C1660   1.451       .  S
C1658      C1661   1.451       .  S
C1659      N1666   1.158       .  T
C1660      N1665   1.157       .  T
C1661      N1663   1.157       .  T
C1662      N1664   1.157       .  T
C1667      C1668   1.415       .  A
C1668      C1669   1.414       .  A
C1668      C1673   1.451       .  S
C1669      C1670   1.415       .  A
C1669      C1676   1.451       .  S
C1671      C1672   1.414       .  A
C1671      C1674   1.452       .  S
C1672      C1675   1.452       .  S
C1673      N1680   1.157       .  T
C1674      N1679   1.158       .  T
C1675      N1677   1.157       .  T
C1676      N1678   1.157       .  T
C1681      C1682   1.416       .  A
C1681      C1686   1.415       .  A
C1682      C1683   1.414       .  A
C1682      C1687   1.452       .  S
C1683      C1684   1.416       .  A
C1683      C1690   1.452       .  S
C1684      C1685   1.415       .  A
C1685      C1686   1.415       .  A
C1685      C1688   1.451       .  S
C1686      C1689   1.451       .  S
C1687      N1694   1.158       .  T
C1688      N1693   1.157       .  T
C1689      N1691   1.157       .  T
C1690      N1692   1.158       .  T
C1695      C1696   1.414       .  A
C1695      C1700   1.415       .  A
C1696      C1697   1.412       .  A
C1696      C1701   1.452       .  S
C1697      C1698   1.415       .  A
C1697      C1704   1.452       .  S
C1698      C1699   1.414       .  A
C1699      C1700   1.411       .  A
C1699      C1702   1.452       .  S
C1700      C1703   1.452       .  S
C1701      N1708   1.158       .  T
C1702      N1707   1.158       .  T
C1703      N1705   1.157       .  T
C1704      N1706   1.157       .  T
C1709      C1710   1.415       .  A
C1710      C1711   1.414       .  A
C1710      C1715   1.452       .  S
C1711      C1712   1.416       .  A
C1711      C1718   1.452       .  S
C1713      C1714   1.415       .  A
C1713      C1716   1.450       .  S
C1714      C1717   1.451       .  S
C1715      N1722   1.157       .  T
C1716      N1721   1.157       .  T
C1717      N1719   1.157       .  T
C1718      N1720   1.157       .  T
C1723      C1728   1.413       .  A
C1724      C1725   1.414       .  A
C1724      C1729   1.451       .  S
C1725      C1732   1.451       .  S
C1726      C1727   1.413       .  A
C1727      C1728   1.410       .  A
C1727      C1730   1.449       .  S
C1728      C1731   1.452       .  S
C1729      N1736   1.157       .  T
C1730      N1735   1.156       .  T
C1731      N1733   1.157       .  T
C1732      N1734   1.157       .  T
C1737      C1738   1.414   1_556  A
C1737      C1742   1.415   1_556  A
C1738      C1739   1.414       .  A
C1738      C1743   1.451   1_554  S
C1739      C1740   1.414       .  A
C1739      C1746   1.451       .  S
C1740      C1741   1.414       .  A
C1741      C1742   1.417       .  A
C1741      C1744   1.451       .  S
C1742      C1745   1.450   1_554  S
C1743      N1750   1.157       .  T
C1744      N1749   1.157       .  T
C1745      N1747   1.157       .  T
C1746      N1748   1.157       .  T
C1751      C1752   1.414       .  A
C1752      C1753   1.413       .  A
C1752      C1757   1.452       .  S
C1753      C1754   1.414   1_554  A
C1753      C1760   1.452   1_554  S
C1755      C1756   1.416       .  A
C1755      C1758   1.451   1_554  S
C1756      C1759   1.451       .  S
C1757      N1764   1.157       .  T
C1758      N1763   1.157       .  T
C1759      N1761   1.157       .  T
C1760      N1762   1.157       .  T
C1765      C1766   1.415       .  A
C1765      C1770   1.413       .  A
C1766      C1767   1.413       .  A
C1766      C1771   1.451       .  S
C1767      C1768   1.414       .  A
C1767      C1774   1.451       .  S
C1768      C1769   1.416       .  A
C1769      C1770   1.413       .  A
C1769      C1772   1.452       .  S
C1770      C1773   1.451       .  S
C1771      N1778   1.157       .  T
C1772      N1777   1.157       .  T
C1773      N1775   1.157       .  T
C1774      N1776   1.157       .  T
C1779      C1780   1.414       .  A
C1779      C1784   1.415       .  A
C1780      C1781   1.414       .  A
C1780      C1785   1.451       .  S
C1781      C1782   1.413       .  A
C1781      C1788   1.451       .  S
C1782      C1783   1.415       .  A
C1783      C1784   1.415       .  A
C1783      C1786   1.452       .  S
C1784      C1787   1.451       .  S
C1785      N1792   1.157       .  T
C1786      N1791   1.157       .  T
C1787      N1789   1.157       .  T
C1788      N1790   1.157       .  T
C1793      C1794   1.417       .  A
C1793      C4038   1.420       .  A
C1794      C1795   1.419       .  A
C1794      C1799   1.451       .  S
C1795      C1796   1.421   1_554  A
C1795      C1802   1.450   1_554  S
C1796      C4037   1.419   1_556  A
C1797      C4036   1.414   1_554  A
C1797      C1798   1.415       .  A
C1797      C1800   1.451   1_554  S
C1798      C4033   1.415       .  A
C1798      C1801   1.452       .  S
C1799      N1806   1.157       .  T
C1800      N1805   1.157       .  T
C1801      N1803   1.157       .  T
C1802      N1804   1.158       .  T
C1807      C1808   1.415       .  A
C1808      C1809   1.413       .  A
C1808      C1813   1.452       .  S
C1809      C1810   1.414       .  A
C1809      C1816   1.452       .  S
C1811      C1812   1.413       .  A
C1811      C1814   1.451       .  S
C1812      C1815   1.452       .  S
C1813      N1820   1.157       .  T
C1814      N1819   1.157   1_565  T
C1815      N1817   1.157   1_565  T
C1816      N1818   1.157       .  T
C1821      C1826   1.414       .  A
C1822      C1823   1.413       .  A
C1822      C1827   1.452       .  S
C1823      C1830   1.452       .  S
C1824      C1825   1.415       .  A
C1825      C1826   1.414       .  A
C1825      C1828   1.451       .  S
C1826      C1829   1.451       .  S
C1827      N1834   1.157       .  T
C1828      N1833   1.157       .  T
C1829      N1831   1.157       .  T
C1830      N1832   1.157       .  T
C1835      C1836   1.415       .  A
C1835      C2960   1.415       .  A
C1836      C1837   1.415       .  A
C1836      C1841   1.452       .  S
C1837      C1838   1.416   1_554  A
C1837      C1844   1.451   1_554  S
C1838      C2959   1.416   1_556  A
C1839      C2958   1.416   1_654  A
C1839      C1840   1.417       .  A
C1839      C1842   1.452   1_554  S
C1840      C2955   1.417   1_655  A
C1840      C1843   1.450       .  S
C1841      N1848   1.157       .  T
C1842      N1847   1.157       .  T
C1843      N1845   1.158       .  T
C1844      N1846   1.157       .  T
C1849      C1850   1.415       .  A
C1849      C1854   1.415       .  A
C1850      C1851   1.416       .  A
C1850      C1855   1.451       .  S
C1851      C1852   1.416       .  A
C1851      C1858   1.451       .  S
C1852      C1853   1.416       .  A
C1853      C1854   1.419       .  A
C1853      C1856   1.450       .  S
C1854      C1857   1.450       .  S
C1855      N1862   1.157       .  T
C1856      N1861   1.157       .  T
C1857      N1859   1.157       .  T
C1858      N1860   1.158       .  T
C1863      C1864   1.415       .  A
C1863      C1868   1.413       .  A
C1864      C1865   1.414       .  A
C1864      C1869   1.451       .  S
C1865      C1866   1.414       .  A
C1865      C1872   1.451       .  S
C1866      C1867   1.414       .  A
C1867      C1868   1.413       .  A
C1867      C1870   1.450       .  S
C1868      C1871   1.449       .  S
C1869      N1876   1.157       .  T
C1870      N1875   1.157       .  T
C1871      N1873   1.156       .  T
C1872      N1874   1.157       .  T
C1877      C1878   1.416       .  A
C1877      C1882   1.416       .  A
C1878      C1879   1.412       .  A
C1878      C1883   1.453       .  S
C1879      C1880   1.416       .  A
C1879      C1886   1.453       .  S
C1880      C1881   1.415       .  A
C1881      C1882   1.413       .  A
C1881      C1884   1.452       .  S
C1882      C1885   1.451       .  S
C1883      N1890   1.157       .  T
C1884      N1889   1.157       .  T
C1885      N1887   1.157       .  T
C1886      N1888   1.158       .  T
C1891      C1896   1.414       .  A
C1892      C1893   1.418       .  A
C1892      C1897   1.450       .  S
C1893      C1894   1.416       .  A
C1893      C1900   1.450       .  S
C1895      C1896   1.415       .  A
C1895      C1898   1.451       .  S
C1896      C1899   1.452       .  S
C1897      N1904   1.157       .  T
C1898      N1903   1.157       .  T
C1899      N1901   1.157       .  T
C1900      N1902   1.157       .  T
C1905      C1906   1.415       .  A
C1905      C4150   1.415       .  A
C1906      C1907   1.416       .  A
C1906      C1911   1.452       .  S
C1907      C1908   1.416       .  A
C1907      C1914   1.452       .  S
C1908      C4149   1.414       .  A
C1909      C4148   1.414       .  A
C1909      C1910   1.419       .  A
C1909      C1912   1.449       .  S
C1910      C4145   1.415       .  A
C1910      C1913   1.449       .  S
C1911      N1918   1.157       .  T
C1912      N1917   1.157       .  T
C1913      N1915   1.157       .  T
C1914      N1916   1.158       .  T
C1919      C4160   1.415       .  A
C1919      C1924   1.414       .  A
C1920      C4159   1.415       .  A
C1920      C1921   1.414       .  A
C1920      C1925   1.451       .  S
C1921      C4162   1.415       .  A
C1921      C1928   1.452       .  S
C1922      C4161   1.415       .  A
C1922      C1923   1.414       .  A
C1923      C1924   1.414       .  A
C1923      C1926   1.451       .  S
C1924      C1927   1.451       .  S
C1925      N1932   1.157       .  T
C1926      N1931   1.157       .  T
C1927      N1929   1.157       .  T
C1928      N1930   1.157       .  T
C1933      C1934   1.413       .  A
C1933      C4178   1.414       .  A
C1934      C1935   1.411       .  A
C1934      C1939   1.450       .  S
C1935      C1936   1.413       .  A
C1935      C1942   1.451       .  S
C1936      C4177   1.415       .  A
C1937      C4176   1.415       .  A
C1937      C1938   1.414       .  A
C1937      C1940   1.451       .  S
C1938      C4173   1.414       .  A
C1938      C1941   1.451       .  S
C1939      N1946   1.157       .  T
C1940      N1945   1.157   1_455  T
C1941      N1943   1.157   1_455  T
C1942      N1944   1.157       .  T
C1947      C4192   1.414       .  A
C1948      C1949   1.416       .  A
C1948      C1953   1.452       .  S
C1949      C1956   1.452       .  S
C1950      C4191   1.416       .  A
C1951      C4190   1.416       .  A
C1951      C1952   1.420       .  A
C1951      C1954   1.449       .  S
C1952      C4187   1.414       .  A
C1952      C1955   1.448       .  S
C1953      N1960   1.158       .  T
C1954      N1959   1.157       .  T
C1955      N1957   1.157       .  T
C1956      N1958   1.157       .  T
C1961      C1962   1.424       .  A
C1961      C1966   1.427       .  A
C1962      C1963   1.417       .  A
C1962      C1967   1.451       .  S
C1963      C1964   1.412       .  A
C1963      C1970   1.452       .  S
C1964      C1965   1.408       .  A
C1965      C1966   1.418       .  A
C1965      C1968   1.452       .  S
C1966      C1969   1.450       .  S
C1967      N1974   1.158       .  T
C1968      N1973   1.157       .  T
C1969      N1971   1.158       .  T
C1970      N1972   1.157       .  T
C1975      C1976   1.415       .  A
C1975      C1980   1.414       .  A
C1976      C1977   1.416       .  A
C1976      C1981   1.451       .  S
C1977      C1978   1.416       .  A
C1977      C1984   1.452       .  S
C1978      C1979   1.415       .  A
C1979      C1980   1.412       .  A
C1979      C1982   1.448       .  S
C1980      C1983   1.453       .  S
C1981      N1988   1.157       .  T
C1982      N1987   1.156       .  T
C1983      N1985   1.157       .  T
C1984      N1986   1.158       .  T
C1989      C1990   1.412       .  A
C1989      C1994   1.413       .  A
C1990      C1991   1.417       .  A
C1990      C1995   1.451       .  S
C1991      C1992   1.415       .  A
C1991      C1998   1.449       .  S
C1992      C1993   1.413       .  A
C1993      C1994   1.413       .  A
C1993      C1996   1.451       .  S
C1994      C1997   1.451       .  S
C1995      N2002   1.158       .  T
C1996      N2001   1.157       .  T
C1997      N1999   1.157       .  T
C1998      N2000   1.157       .  T
C2003      C2004   1.417       .  A
C2004      C2005   1.417       .  A
C2004      C2009   1.451       .  S
C2005      C2006   1.415       .  A
C2005      C2012   1.451       .  S
C2007      C2008   1.416       .  A
C2007      C2010   1.452       .  S
C2008      C2011   1.451       .  S
C2009      N2016   1.157       .  T
C2010      N2015   1.157       .  T
C2011      N2013   1.157       .  T
C2012      N2014   1.157       .  T
C2017      C2018   1.421       .  A
C2017      C4262   1.416       .  A
C2018      C2019   1.418       .  A
C2018      C2023   1.451       .  S
C2019      C2020   1.414       .  A
C2019      C2026   1.451       .  S
C2020      C4261   1.418       .  A
C2021      C4260   1.418       .  A
C2021      C2022   1.419       .  A
C2021      C2024   1.451       .  S
C2022      C4257   1.418       .  A
C2022      C2025   1.451       .  S
C2023      N2030   1.157       .  T
C2024      N2029   1.157       .  T
C2025      N2027   1.157       .  T
C2026      N2028   1.157       .  T
C2031      C4272   1.413       .  A
C2031      C2036   1.413       .  A
C2032      C4271   1.413       .  A
C2032      C2033   1.413       .  A
C2032      C2037   1.452       .  S
C2033      C4274   1.416       .  A
C2033      C2040   1.451       .  S
C2034      C4273   1.415       .  A
C2034      C2035   1.414       .  A
C2035      C2036   1.412       .  A
C2035      C2038   1.452       .  S
C2036      C2039   1.451       .  S
C2037      N2044   1.157       .  T
C2038      N2043   1.157       .  T
C2039      N2041   1.157       .  T
C2040      N2042   1.158       .  T
C2045      C2046   1.414       .  A
C2045      C4290   1.416       .  A
C2046      C2047   1.416       .  A
C2046      C2051   1.451       .  S
C2047      C2048   1.415       .  A
C2047      C2054   1.451       .  S
C2048      C4289   1.415       .  A
C2049      C4288   1.415       .  A
C2049      C2050   1.415       .  A
C2049      C2052   1.452       .  S
C2050      C4285   1.416       .  A
C2050      C2053   1.452       .  S
C2051      N2058   1.157       .  T
C2052      N2057   1.157       .  T
C2053      N2055   1.158       .  T
C2054      N2056   1.157       .  T
C2059      C4300   1.428       .  A
C2060      C4299   1.428       .  A
C2060      C2061   1.421       .  A
C2060      C2065   1.450       .  S
C2061      C4302   1.409       .  A
C2061      C2068   1.451       .  S
C2062      C4301   1.410       .  A
C2063      C2064   1.418       .  A
C2063      C2066   1.452       .  S
C2064      C2067   1.451       .  S
C2065      N2072   1.158       .  T
C2066      N2071   1.157       .  T
C2067      N2069   1.158       .  T
C2068      N2070   1.157       .  T
C2073      C2074   1.420       .  A
C2073      C2078   1.419       .  A
C2074      C2075   1.416       .  A
C2074      C2079   1.452       .  S
C2075      C2076   1.419       .  A
C2075      C2082   1.452       .  S
C2076      C2077   1.419       .  A
C2077      C2078   1.413       .  A
C2077      C2080   1.453       .  S
C2078      C2081   1.453       .  S
C2079      N2086   1.158       .  T
C2080      N2085   1.158       .  T
C2081      N2083   1.158       .  T
C2082      N2084   1.158       .  T
C2087      C2088   1.413       .  A
C2087      C2092   1.413       .  A
C2088      C2089   1.412       .  A
C2088      C2093   1.452       .  S
C2089      C2090   1.415       .  A
C2089      C2096   1.452       .  S
C2090      C2091   1.413       .  A
C2091      C2092   1.408       .  A
C2091      C2094   1.452       .  S
C2092      C2095   1.453       .  S
C2093      N2100   1.158       .  T
C2094      N2099   1.158       .  T
C2095      N2097   1.157       .  T
C2096      N2098   1.157       .  T
C2101      C2102   1.414       .  A
C2102      C2103   1.414       .  A
C2102      C2107   1.451       .  S
C2103      C2104   1.413       .  A
C2103      C2110   1.451       .  S
C2105      C2106   1.414       .  A
C2105      C2108   1.451       .  S
C2106      C2109   1.451       .  S
C2107      N2114   1.157       .  T
C2108      N2113   1.157       .  T
C2109      N2111   1.157       .  T
C2110      N2112   1.157       .  T
C2115      C2116   1.415       .  A
C2116      C2117   1.414       .  A
C2116      C2121   1.452       .  S
C2117      C2118   1.415       .  A
C2117      C2124   1.451       .  S
C2119      C2120   1.412       .  A
C2119      C2122   1.452       .  S
C2120      C2123   1.452       .  S
C2121      N2128   1.157       .  T
C2122      N2127   1.157       .  T
C2123      N2125   1.158       .  T
C2124      N2126   1.158       .  T
C2129      C2130   1.422       .  A
C2129      C2134   1.421       .  A
C2130      C2131   1.416       .  A
C2130      C2135   1.451       .  S
C2131      C2132   1.411       .  A
C2131      C2138   1.450       .  S
C2132      C2133   1.414       .  A
C2133      C2134   1.418       .  A
C2133      C2136   1.452       .  S
C2134      C2137   1.451       .  S
C2135      N2142   1.157       .  T
C2136      N2141   1.157       .  T
C2137      N2139   1.158       .  T
C2138      N2140   1.157       .  T
C2143      C2144   1.414       .  A
C2143      C2148   1.412       .  A
C2144      C2145   1.412       .  A
C2144      C2149   1.452       .  S
C2145      C2146   1.413       .  A
C2145      C2152   1.452       .  S
C2146      C2147   1.413       .  A
C2147      C2148   1.411       .  A
C2147      C2150   1.452       .  S
C2148      C2151   1.452       .  S
C2149      N2156   1.158       .  T
C2150      N2155   1.157       .  T
C2151      N2153   1.157       .  T
C2152      N2154   1.157       .  T
C2157      C2158   1.416       .  A
C2157      C2162   1.416       .  A
C2158      C2159   1.415       .  A
C2158      C2163   1.452       .  S
C2159      C2160   1.417       .  A
C2159      C2166   1.452       .  S
C2160      C2161   1.416       .  A
C2161      C2162   1.414       .  A
C2161      C2164   1.451       .  S
C2162      C2165   1.452       .  S
C2163      N2170   1.158       .  T
C2164      N2169   1.157       .  T
C2165      N2167   1.157       .  T
C2166      N2168   1.157       .  T
C2171      C2176   1.420       .  A
C2172      C2173   1.417       .  A
C2172      C2177   1.451       .  S
C2173      C2174   1.416       .  A
C2173      C2180   1.452       .  S
C2175      C2176   1.418       .  A
C2175      C2178   1.452       .  S
C2176      C2179   1.451       .  S
C2177      N2184   1.157       .  T
C2178      N2183   1.157       .  T
C2179      N2181   1.157       .  T
C2180      N2182   1.157       .  T
C2185      C2186   1.414       .  A
C2185      C4430   1.414       .  A
C2186      C2187   1.416       .  A
C2186      C2191   1.451       .  S
C2187      C2188   1.417       .  A
C2187      C2194   1.450       .  S
C2188      C4429   1.420       .  A
C2189      C4428   1.420       .  A
C2189      C2190   1.417       .  A
C2189      C2192   1.452       .  S
C2190      C4425   1.414       .  A
C2190      C2193   1.452       .  S
C2191      N2198   1.157       .  T
C2192      N2197   1.158       .  T
C2193      N2195   1.157       .  T
C2194      N2196   1.157       .  T
C2199      C2200   1.414       .  A
C2199      C4444   1.415       .  A
C2200      C2201   1.413       .  A
C2200      C2205   1.452       .  S
C2201      C2202   1.415       .  A
C2201      C2208   1.451       .  S
C2202      C4443   1.415       .  A
C2203      C4442   1.415       .  A
C2203      C2204   1.415       .  A
C2203      C2206   1.452       .  S
C2204      C4439   1.415       .  A
C2204      C2207   1.451       .  S
C2205      N2212   1.157       .  T
C2206      N2211   1.157       .  T
C2207      N2209   1.158       .  T
C2208      N2210   1.158       .  T
C2213      C2214   1.414       .  A
C2213      C4458   1.414       .  A
C2214      C2215   1.413       .  A
C2214      C2219   1.451       .  S
C2215      C2216   1.414       .  A
C2215      C2222   1.451       .  S
C2216      C4457   1.414       .  A
C2217      C4456   1.414       .  A
C2217      C2218   1.416       .  A
C2217      C2220   1.451       .  S
C2218      C4453   1.414       .  A
C2218      C2221   1.450       .  S
C2219      N2226   1.157       .  T
C2220      N2225   1.157       .  T
C2221      N2223   1.157       .  T
C2222      N2224   1.157       .  T
C2227      C4472   1.419       .  A
C2228      C2229   1.418       .  A
C2228      C2233   1.451       .  S
C2229      C2236   1.451       .  S
C2230      C3371   1.497   1_565  S
C2230      C4471   1.415       .  A
C2231      C4470   1.415       .  A
C2231      C2232   1.415       .  A
C2231      C2234   1.452       .  S
C2232      C4467   1.418       .  A
C2232      C2235   1.452       .  S
C2233      N2240   1.157       .  T
C2234      N2239   1.157       .  T
C2235      N2237   1.157       .  T
C2236      N2238   1.157       .  T
O2241      V3369   1.908       .  S
O2242      V2249   1.908   1_455  S
O2243      V2249   1.902       .  S
O2243      C2253   1.265   1_655  A
O2244      V3369   1.904       .  S
O2244      C2254   1.265   1_655  A
O2245      V3370   1.908       .  S
O2246      V2250   1.901       .  S
O2247      V3370   1.911       .  S
O2247      C2252   1.267       .  A
O2248      V2250   1.910       .  S
O2248      C2251   1.267       .  A
V2249      O3361   1.910       .  S
V2249      O3364   1.905       .  S
V2250      O3365   1.908       .  S
V2250      O3367   1.912       .  S
C2253      C3319   1.490       .  S
C2254      C3333   1.490       .  S
O2255      V2263   1.907       .  S
O2256      V2263   1.908       .  S
O2257      V2263   1.903       .  S
O2258      V2263   1.908       .  S
O2259      V2264   1.903       .  S
O2259      C2268   1.265   1_655  A
O2260      V2264   1.902       .  S
O2260      C2267   1.265   1_655  A
O2261      V2264   1.907   1_455  S
O2261      C2266   1.266       .  A
O2262      V2264   1.911       .  S
O2262      C2265   1.267   1_655  A
C2265      C3305   1.497       .  S
C2266      C2658   1.475       .  S
C2267      C3322   1.491       .  S
C2268      C3336   1.490       .  S
O2269      V3397   1.905       .  S
O2269      C3399   1.265       .  A
O2270      V2277   1.902       .  S
O2270      C2280   1.264       .  A
O2271      V2277   1.909   1_545  S
O2271      C2281   1.267       .  A
O2272      V3397   1.904       .  S
O2272      C2282   1.265       .  A
O2273      V3398   1.896       .  S
O2273      C2282   1.263       .  A
O2274      V2278   1.902   1_545  S
O2274      C2281   1.265       .  A
O2275      V3398   1.915       .  S
O2275      C3400   1.268       .  A
O2276      V2278   1.916       .  S
O2276      C2279   1.269       .  A
V2277      O3389   1.903       .  S
V2277      O3392   1.906       .  S
V2277      V2278   2.086       .  T
V2278      O3393   1.898       .  S
V2278      O3395   1.916       .  S
C2279      O3389   1.265       .  A
C2279      C3291   1.503       .  S
C2280      O3395   1.268       .  A
C2280      C2672   1.479       .  S
C2281      C3280   1.496       .  S
C2282      C3263   1.483       .  S
O2283      V2291   1.906       .  S
O2283      C2293   1.265       .  A
O2284      V2291   1.904       .  S
O2284      C2294   1.265       .  A
O2285      V2291   1.903       .  S
O2285      C2295   1.265       .  A
O2286      V2291   1.906       .  S
O2286      C2296   1.266       .  A
O2287      V2292   1.904       .  S
O2287      C2296   1.265       .  A
O2288      V2292   1.898       .  S
O2288      C2295   1.263       .  A
O2289      V2292   1.920       .  S
O2289      C2294   1.268       .  A
O2290      V2292   1.920       .  S
O2290      C2293   1.270       .  A
V2291      V2292   2.085       .  T
C2293      C3249   1.506       .  S
C2294      C2686   1.483       .  S
C2295      C3266   1.484       .  S
C2296      C3277   1.495       .  S
O2298      V2305   1.915       .  S
O2298      C2308   1.267       .  A
O2299      V2305   1.904       .  S
O2299      C2309   1.265       .  A
O2300      C2310   1.264       .  A
O2301      C3430   1.265   1_545  A
O2302      V2306   1.906       .  S
O2302      C3429   1.265   1_545  A
O2304      V2306   1.906       .  S
O2304      C3427   1.266   1_645  A
V2305      V3426   2.085       .  T
V2306      V3425   2.086   1_545  T
C2307      O3424   1.266       .  A
C2307      C3347   1.507   1_655  S
C2308      C2588   1.478       .  S
C2309      O3422   1.266       .  A
C2309      C3221   1.491       .  S
C2310      O3421   1.266       .  A
C2310      C3235   1.488       .  S
O2312      V2319   1.906       .  S
O2312      C2322   1.265       .  A
O2313      V2319   1.901   1_655  S
O2313      C2323   1.265       .  A
O2314      C2324   1.265       .  A
O2315      C2324   1.264       .  A
O2316      V2320   1.898       .  S
O2316      C2323   1.265       .  A
O2318      V2320   1.912       .  S
O2318      C2321   1.268   1_655  A
V2319      V2320   2.083   1_455  T
C2321      C3308   1.507       .  S
C2322      C2602   1.483       .  S
C2323      C3193   1.501       .  S
C2324      C3207   1.495       .  S
O2325      V2333   1.913       .  S
O2325      C2335   1.268       .  A
O2326      V2333   1.912       .  S
O2326      C2336   1.266       .  A
O2327      V2333   1.905       .  S
O2327      C2337   1.265       .  A
O2328      V2333   1.909       .  S
O2328      C2338   1.266       .  A
O2329      V2334   1.903       .  S
O2329      C3458   1.265   1_545  A
O2330      V2334   1.900       .  S
O2330      C3457   1.265   1_545  A
O2331      V2334   1.904       .  S
O2331      C3456   1.265   1_545  A
O2332      V2334   1.909       .  S
O2332      C3455   1.267   1_545  A
V2333      V3454   2.086       .  T
V2334      V3453   2.086   1_545  T
C2335      O3452   1.266       .  A
C2335      C3294   1.499       .  S
C2336      O3451   1.265       .  A
C2336      C3736   1.476       .  S
C2337      O3450   1.265       .  A
C2337      C3238   1.488       .  S
C2338      O3449   1.265       .  A
C2338      C3224   1.491       .  S
O2339      V2347   1.909       .  S
O2339      C2349   1.266       .  A
O2340      V2347   1.902       .  S
O2340      C2350   1.264       .  A
O2341      V2347   1.899       .  S
O2341      C2351   1.266       .  A
O2342      V2347   1.904       .  S
O2342      C2352   1.266       .  A
O2343      V2348   1.898       .  S
O2343      C2352   1.265       .  A
O2344      V2348   1.893       .  S
O2344      C2351   1.262       .  A
O2345      V2348   1.923       .  S
O2345      C2350   1.269       .  A
O2346      V2348   1.918       .  S
O2346      C2349   1.269       .  A
V2347      V2348   2.084       .  T
C2349      C3252   1.506       .  S
C2350      C2630   1.483       .  S
C2351      C3210   1.492       .  S
C2352      C3196   1.500       .  S
O2353      V2361   1.919       .  S
O2354      V3481   1.921       .  S
O2355      V3481   1.902       .  S
O2356      V2361   1.903   1_545  S
O2357      V2362   1.911   1_545  S
O2357      C2366   1.267       .  A
O2358      V3482   1.904       .  S
O2358      C2365   1.266       .  A
O2359      V2362   1.899       .  S
O2359      C2364   1.264       .  A
O2360      V3482   1.906   1_655  S
O2360      C3483   1.265   1_655  A
V2361      O3474   1.921       .  S
V2361      O3475   1.902       .  S
V2362      O3478   1.904       .  S
V2362      O3480   1.902       .  S
C2363      O3480   1.263       .  A
C2363      C3182   1.494       .  S
C2364      C2420   1.479       .  S
C2365      C3154   1.488       .  S
C2366      C3165   1.493       .  S
O2367      V2375   1.907       .  S
O2367      C2377   1.266       .  A
O2368      V2375   1.905       .  S
O2368      C2378   1.266       .  A
O2369      V2375   1.901       .  S
O2369      C2379   1.264       .  A
O2370      V2375   1.906       .  S
O2370      C2380   1.265       .  A
O2371      V2376   1.908       .  S
O2372      V2376   1.901       .  S
O2373      V2376   1.915       .  S
O2374      V2376   1.914       .  S
C2377      C3137   1.509       .  S
C2378      C2434   1.479       .  S
C2379      C3151   1.484       .  S
C2380      C3168   1.493       .  S
O2381      V2389   1.906       .  S
O2381      C2391   1.266       .  A
O2382      V3509   1.904       .  S
O2382      C3512   1.265       .  A
O2383      V3509   1.896       .  S
O2383      C2393   1.264       .  A
O2384      V2389   1.903   1_545  S
O2384      C2394   1.265       .  A
O2385      V2390   1.910   1_545  S
O2385      C2394   1.266       .  A
O2386      V3510   1.908       .  S
O2386      C2393   1.267       .  A
O2387      V2390   1.910       .  S
O2387      C2392   1.266       .  A
O2388      V3510   1.906       .  S
O2388      C3511   1.266       .  A
V2389      O3502   1.900       .  S
V2389      O3503   1.901       .  S
V2389      V2390   2.086       .  T
V2390      O3506   1.908       .  S
V2390      O3508   1.909       .  S
C2391      O3508   1.267       .  A
C2391      C3123   1.503       .  S
C2392      O3502   1.264       .  A
C2392      C3568   1.472       .  S
C2393      C3095   1.491       .  S
C2394      C3109   1.491       .  S
O2395      V2403   1.908       .  S
O2395      C2405   1.266       .  A
O2396      V2403   1.900       .  S
O2396      C2406   1.265       .  A
O2397      V2403   1.908       .  S
O2397      C2407   1.266       .  A
O2398      V2403   1.907       .  S
O2398      C2408   1.266       .  A
O2399      V2404   1.901       .  S
O2399      C2408   1.265       .  A
O2400      V2404   1.909       .  S
O2400      C2407   1.266       .  A
O2401      V2404   1.912       .  S
O2401      C2406   1.266       .  A
O2402      V2404   1.910       .  S
O2402      C2405   1.268       .  A
V2403      V2404   2.083       .  T
C2405      C3081   1.516       .  S
C2406      C2462   1.475       .  S
C2407      C3112   1.493       .  S
C2408      C3098   1.494       .  S
O2409      V2417   1.902   1_545  S
O2409      C2419   1.265       .  A
O2410      V3537   1.905       .  S
O2410      C3540   1.266       .  A
O2411      V3537   1.907       .  S
O2411      C2421   1.266       .  A
O2412      V2417   1.903   1_545  S
O2412      C2422   1.265       .  A
O2413      V2418   1.903       .  S
O2414      V3538   1.904       .  S
O2415      V2418   1.921       .  S
O2416      V3538   1.919       .  S
V2417      O3530   1.899       .  S
V2417      O3531   1.906       .  S
V2418      O3534   1.904   1_545  S
V2418      O3536   1.920   1_545  S
C2419      C3070   1.500       .  S
C2420      O3530   1.264       .  A
C2421      C3042   1.490       .  S
C2422      C3053   1.489       .  S
O2423      V2431   1.901       .  S
O2423      C2433   1.264       .  A
O2424      V2431   1.902       .  S
O2424      C2434   1.264       .  A
O2425      V2431   1.905       .  S
O2425      C2435   1.266       .  A
O2426      V2431   1.908       .  S
O2426      C2436   1.267       .  A
O2427      V2432   1.903       .  S
O2428      V2432   1.901       .  S
O2429      V2432   1.918       .  S
O2430      V2432   1.917       .  S
C2433      C3025   1.497       .  S
C2435      C3056   1.489       .  S
C2436      C3039   1.490       .  S
O2437      V3565   1.913       .  S
O2437      C3567   1.267       .  A
O2438      V2445   1.911       .  S
O2438      C2448   1.266       .  A
O2439      V2445   1.904       .  S
O2439      C2449   1.265       .  A
O2440      V3565   1.902   1_545  S
O2440      C2450   1.265       .  A
O2441      V3566   1.902   1_545  S
O2441      C2450   1.265       .  A
O2442      V2446   1.902       .  S
O2442      C2449   1.265       .  A
O2443      V3566   1.899       .  S
O2443      C3568   1.264       .  A
O2444      V2446   1.904       .  S
O2444      C2447   1.266       .  A
V2445      O3557   1.912       .  S
V2445      O3560   1.902       .  S
V2445      V2446   2.086       .  T
V2446      O3561   1.903       .  S
V2446      O3563   1.900       .  S
C2447      O3557   1.267       .  A
C2447      C3011   1.500       .  S
C2448      O3563   1.264       .  A
C2448      C3512   1.473       .  S
C2449      C2983   1.489       .  S
C2450      C2997   1.491       .  S
O2451      V2459   1.903       .  S
O2451      C2461   1.265       .  A
O2452      V2459   1.897       .  S
O2452      C2462   1.263       .  A
O2453      V2459   1.907       .  S
O2453      C2463   1.266       .  A
O2454      V2459   1.907       .  S
O2454      C2464   1.267       .  A
O2455      V2460   1.895       .  S
O2455      C2464   1.263       .  A
O2456      V2460   1.899       .  S
O2456      C2463   1.264       .  A
O2457      V2460   1.915       .  S
O2457      C2462   1.267       .  A
O2458      V2460   1.917       .  S
O2458      C2461   1.269       .  A
V2459      V2460   2.086       .  T
C2461      C2969   1.499       .  S
C2463      C2986   1.489       .  S
C2464      C3000   1.490       .  S
O2465      V2473   1.902       .  S
O2465      C2475   1.266       .  A
O2467      C2477   1.265       .  A
O2468      V2473   1.905       .  S
O2468      C2478   1.266       .  A
O2469      V2474   1.902       .  S
O2469      C3598   1.264       .  A
O2470      C3597   1.265       .  A
O2471      V2474   1.912       .  S
O2471      C3596   1.267       .  A
V2473      V3594   2.086       .  T
V2474      V3593   2.086       .  T
C2475      C2955   1.498   1_655  S
C2476      O3591   1.266       .  A
C2476      C2532   1.476       .  S
C2477      O3590   1.266       .  A
C2477      C2941   1.490       .  S
C2478      O3589   1.265       .  A
C2478      C2930   1.491       .  S
O2479      V2487   1.917       .  S
O2479      C2489   1.269       .  A
O2481      C2491   1.264       .  A
O2482      V2487   1.899   1_655  S
O2482      C2492   1.264       .  A
O2483      V2488   1.905   1_655  S
O2483      C2492   1.265       .  A
O2484      C2491   1.267       .  A
O2485      V2488   1.899       .  S
O2485      C2490   1.264       .  A
V2487      V2488   2.086       .  T
C2489      C2913   1.496       .  S
C2490      C2546   1.479       .  S
C2491      C2902   1.494       .  S
C2492      C2885   1.487       .  S
O2493      V2501   1.898       .  S
O2493      C2503   1.264       .  A
O2494      V2501   1.900       .  S
O2494      C2504   1.263       .  A
O2495      V2501   1.905       .  S
O2495      C2505   1.266       .  A
O2496      V2501   1.909       .  S
O2496      C2506   1.266       .  A
O2497      V2502   1.905       .  S
O2497      C3626   1.266       .  A
O2498      V2502   1.902       .  S
O2498      C3625   1.265       .  A
O2499      V2502   1.907       .  S
O2499      C3624   1.266       .  A
O2500      V2502   1.909       .  S
O2500      C3623   1.266       .  A
V2501      V3622   2.086       .  T
V2502      V3621   2.086       .  T
C2503      O3620   1.267       .  A
C2503      C2871   1.494       .  S
C2504      O3619   1.266       .  A
C2504      C2560   1.472       .  S
C2505      O3618   1.264       .  A
C2505      C2927   1.490       .  S
C2506      O3617   1.265       .  A
C2506      C2944   1.491       .  S
O2507      V2515   1.915       .  S
O2507      C2517   1.268       .  A
O2508      V2515   1.916       .  S
O2508      C2518   1.267       .  A
O2509      V2515   1.900       .  S
O2509      C2519   1.265       .  A
O2510      V2515   1.903       .  S
O2510      C2520   1.265       .  A
O2511      V2516   1.906       .  S
O2511      C2520   1.267       .  A
O2512      V2516   1.903       .  S
O2512      C2519   1.265       .  A
O2513      V2516   1.900       .  S
O2513      C2518   1.264       .  A
O2514      V2516   1.903       .  S
O2514      C2517   1.265       .  A
V2515      V2516   2.086       .  T
C2517      C2860   1.496       .  S
C2518      C2574   1.477       .  S
C2519      C2888   1.486       .  S
C2520      C2899   1.495       .  S
O2521      V2529   1.914   1_455  S
O2521      C3651   1.269       .  A
O2523      C3653   1.264       .  A
O2524      V2529   1.906       .  S
O2524      C3654   1.266       .  A
O2525      V2530   1.904       .  S
O2525      C2534   1.266   1_545  A
O2526      C2533   1.265   1_545  A
O2527      V2530   1.905       .  S
O2527      C2532   1.265   1_545  A
V2529      V3650   2.083       .  T
V2530      V3649   2.083   1_545  T
C2531      O3641   1.268       .  A
C2531      C3179   1.518       .  S
C2533      O3643   1.264       .  A
C2533      C2846   1.487       .  S
C2534      O3644   1.266       .  A
C2534      C2832   1.496       .  S
O2535      V2543   1.905       .  S
O2535      C2545   1.265       .  A
O2537      C2547   1.265       .  A
O2538      V2543   1.911   1_655  S
O2538      C2548   1.267       .  A
O2539      V2544   1.905   1_655  S
O2539      C2548   1.265       .  A
O2540      C2547   1.264       .  A
O2541      V2544   1.917       .  S
O2541      C2546   1.267       .  A
V2543      V2544   2.085       .  T
C2545      C3140   1.501       .  S
C2547      C2818   1.488       .  S
C2548      C2801   1.494       .  S
O2549      V2557   1.907       .  S
O2549      C3679   1.267       .  A
O2550      V2557   1.905       .  S
O2550      C3680   1.265       .  A
O2551      V2557   1.911       .  S
O2551      C2561   1.267       .  A
O2552      V2557   1.905       .  S
O2552      C2562   1.265       .  A
O2553      V2558   1.899       .  S
O2553      C3682   1.264   1_545  A
O2554      V2558   1.902       .  S
O2554      C3681   1.265   1_545  A
O2555      V2558   1.904       .  S
O2555      C2560   1.266   1_545  A
O2556      V2558   1.907       .  S
O2556      C2559   1.266   1_545  A
V2557      V3678   2.086       .  T
V2558      V3677   2.087   1_545  T
C2559      O3669   1.266       .  A
C2559      C3126   1.496       .  S
C2560      O3670   1.264       .  A
C2561      O3674   1.265       .  A
C2561      C3949   1.495       .  S
C2562      O3673   1.264       .  A
C2562      C3963   1.486       .  S
O2563      V2571   1.901       .  S
O2563      C2573   1.264       .  A
O2564      V2571   1.899       .  S
O2564      C2574   1.264       .  A
O2565      V2571   1.913       .  S
O2565      C2575   1.267       .  A
O2566      V2571   1.904       .  S
O2566      C2576   1.266       .  A
O2567      V2572   1.901       .  S
O2567      C2576   1.264       .  A
O2568      V2572   1.904       .  S
O2568      C2575   1.265       .  A
O2569      V2572   1.916       .  S
O2569      C2574   1.267       .  A
O2570      V2572   1.917       .  S
O2570      C2573   1.268       .  A
V2571      V2572   2.086       .  T
C2573      C3084   1.493       .  S
C2575      C2804   1.495       .  S
C2576      C2815   1.489       .  S
O2578      V2585   1.901       .  S
O2578      C3708   1.264       .  A
O2579      V2585   1.905       .  S
O2579      C3709   1.265       .  A
O2580      C3710   1.265       .  A
O2581      C2590   1.265       .  A
O2582      V2586   1.900       .  S
O2582      C2589   1.264       .  A
O2584      V2586   1.913       .  S
O2584      C3707   1.268       .  A
V2585      V3706   2.086       .  T
V2586      V3705   2.086       .  T
C2587      O3704   1.268   1_455  A
C2587      C2958   1.499       .  S
C2588      O3698   1.265       .  A
C2589      O3699   1.266       .  A
C2589      C3893   1.488       .  S
C2590      O3700   1.266       .  A
C2590      C3907   1.492       .  S
O2591      V2599   1.908       .  S
O2591      C2601   1.266       .  A
O2593      C2603   1.266       .  A
O2594      V2599   1.904       .  S
O2594      C2604   1.265       .  A
O2595      V2600   1.901   1_655  S
O2595      C2604   1.264       .  A
O2596      C2603   1.264       .  A
O2597      V2600   1.917       .  S
O2597      C2602   1.268       .  A
V2599      V2600   2.085   1_655  T
C2601      C2916   1.498       .  S
C2603      C2759   1.495       .  S
C2604      C2745   1.487       .  S
O2605      V2613   1.910       .  S
O2605      C3735   1.267       .  A
O2606      V2613   1.911       .  S
O2606      C3736   1.266       .  A
O2607      V2613   1.901       .  S
O2607      C3737   1.264       .  A
O2608      V2613   1.904       .  S
O2608      C3738   1.265       .  A
O2609      V2614   1.907       .  S
O2609      C2618   1.266       .  A
O2610      V2614   1.906       .  S
O2610      C2617   1.266       .  A
O2611      V2614   1.900       .  S
O2611      C2616   1.264       .  A
O2612      V2614   1.898       .  S
O2612      C2615   1.264       .  A
V2613      V3734   2.086       .  T
V2614      V3733   2.086       .  T
C2615      O3725   1.267       .  A
C2615      C2874   1.496       .  S
C2616      O3726   1.266       .  A
C2616      C3456   1.472       .  S
C2617      O3727   1.264       .  A
C2617      C2776   1.488       .  S
C2618      O3728   1.265       .  A
C2618      C2790   1.491       .  S
O2619      V2627   1.915       .  S
O2619      C2629   1.268       .  A
O2620      V2627   1.921       .  S
O2620      C2630   1.268       .  A
O2621      V2627   1.901       .  S
O2621      C2631   1.266       .  A
O2622      V2627   1.904       .  S
O2622      C2632   1.265       .  A
O2623      V2628   1.900       .  S
O2623      C2632   1.264       .  A
O2624      V2628   1.902       .  S
O2624      C2631   1.265       .  A
O2625      V2628   1.903       .  S
O2625      C2630   1.265       .  A
O2626      V2628   1.905       .  S
O2626      C2629   1.266       .  A
V2627      V2628   2.085       .  T
C2629      C2857   1.498       .  S
C2631      C2762   1.496       .  S
C2632      C2748   1.486       .  S
O2633      V3761   1.905       .  S
O2633      C3763   1.265       .  A
O2634      V2641   1.906       .  S
O2634      C2644   1.265       .  A
O2635      V2641   1.900       .  S
O2635      C2645   1.265       .  A
O2636      V3761   1.899       .  S
O2636      C2646   1.265       .  A
O2637      V3762   1.896       .  S
O2638      V2642   1.890       .  S
O2639      V3762   1.912       .  S
O2640      V2642   1.918       .  S
V2641      O3753   1.904   1_545  S
V2641      O3756   1.902   1_545  S
V2642      O3757   1.894   1_545  S
V2642      O3759   1.910       .  S
C2643      O3753   1.265       .  A
C2643      C3067   1.500   1_565  S
C2645      C2731   1.502       .  S
C2646      C2720   1.496       .  S
O2647      V2655   1.918       .  S
O2648      V2655   1.910       .  S
O2649      V2655   1.890       .  S
O2650      V2655   1.892       .  S
O2651      V2656   1.903       .  S
O2651      C2660   1.267       .  A
O2652      V2656   1.902       .  S
O2652      C2659   1.266       .  A
O2653      V2656   1.904       .  S
O2653      C2658   1.264       .  A
O2654      V2656   1.900       .  S
O2654      C2657   1.264       .  A
C2657      C3028   1.496       .  S
C2659      C2734   1.502       .  S
C2660      C2717   1.497       .  S
O2661      V3789   1.913       .  S
O2661      C3791   1.267       .  A
O2662      V2669   1.915       .  S
O2662      C2672   1.267       .  A
O2663      V2669   1.903   1_545  S
O2663      C2673   1.265       .  A
O2664      V3789   1.906       .  S
O2664      C2674   1.265       .  A
O2665      V3790   1.903       .  S
O2665      C2674   1.264       .  A
O2666      V2670   1.904   1_545  S
O2666      C2673   1.266       .  A
O2667      V3790   1.907       .  S
O2667      C3792   1.266       .  A
O2668      V2670   1.905       .  S
O2668      C2671   1.266       .  A
V2669      O3781   1.912       .  S
V2669      O3784   1.906       .  S
V2669      V2670   2.086       .  T
V2670      O3785   1.904       .  S
V2670      O3787   1.904       .  S
C2671      O3781   1.267       .  A
C2671      C3014   1.498       .  S
C2672      O3787   1.265       .  A
C2673      C2706   1.492       .  S
C2674      C2689   1.488       .  S
O2675      V2683   1.915       .  S
O2675      C2685   1.268       .  A
O2676      V2683   1.919       .  S
O2676      C2686   1.268       .  A
O2677      V2683   1.904       .  S
O2677      C2687   1.265       .  A
O2678      V2683   1.901       .  S
O2678      C2688   1.265       .  A
O2679      V2684   1.906       .  S
O2679      C2688   1.266       .  A
O2680      V2684   1.905       .  S
O2680      C2687   1.265       .  A
O2681      V2684   1.904       .  S
O2681      C2686   1.265       .  A
O2682      V2684   1.906       .  S
O2682      C2685   1.265       .  A
V2683      V2684   2.085       .  T
C2685      C2972   1.499       .  S
C2687      C2692   1.488       .  S
C2688      C2703   1.491       .  S
C2689      C2690   1.413       .  A
C2689      C2694   1.414       .  A
C2690      C2691   1.413       .  A
C2690      C2695   1.451       .  S
C2691      C2692   1.414       .  A
C2691      C2698   1.451       .  S
C2692      C2693   1.413       .  A
C2693      C2694   1.414       .  A
C2693      C2696   1.451       .  S
C2694      C2697   1.451       .  S
C2695      N2702   1.157       .  T
C2696      N2701   1.157       .  T
C2697      N2699   1.157       .  T
C2698      N2700   1.157       .  T
C2703      C2704   1.415       .  A
C2703      C2708   1.415       .  A
C2704      C2705   1.414       .  A
C2704      C2709   1.452       .  S
C2705      C2706   1.415       .  A
C2705      C2712   1.451       .  S
C2706      C2707   1.415       .  A
C2707      C2708   1.413       .  A
C2707      C2710   1.452       .  S
C2708      C2711   1.452       .  S
C2709      N2716   1.157       .  T
C2710      N2715   1.157       .  T
C2711      N2713   1.157       .  T
C2712      N2714   1.157       .  T
C2717      C2718   1.417       .  A
C2718      C2719   1.411       .  A
C2718      C2723   1.452   1_455  S
C2719      C2720   1.417       .  A
C2719      C2726   1.453   1_455  S
C2721      C2722   1.412       .  A
C2721      C2724   1.451       .  S
C2722      C2725   1.452       .  S
C2723      N2730   1.157       .  T
C2724      N2729   1.157       .  T
C2725      N2727   1.157       .  T
C2726      N2728   1.157       .  T
C2731      C2732   1.420       .  A
C2732      C2733   1.414       .  A
C2732      C2737   1.452   1_455  S
C2733      C2734   1.419       .  A
C2733      C2740   1.453   1_455  S
C2735      C2736   1.410       .  A
C2735      C2738   1.454       .  S
C2736      C2739   1.455       .  S
C2737      N2744   1.158       .  T
C2738      N2743   1.158       .  T
C2739      N2741   1.157       .  T
C2740      N2742   1.157       .  T
C2745      C2746   1.414       .  A
C2745      C2750   1.413       .  A
C2746      C2747   1.413       .  A
C2746      C2751   1.451       .  S
C2747      C2748   1.414       .  A
C2747      C2754   1.452       .  S
C2748      C2749   1.414       .  A
C2749      C2750   1.412       .  A
C2749      C2752   1.452       .  S
C2750      C2753   1.451       .  S
C2751      N2758   1.157       .  T
C2752      N2757   1.157       .  T
C2753      N2755   1.157       .  T
C2754      N2756   1.157       .  T
C2759      C2760   1.416       .  A
C2759      C2764   1.416       .  A
C2760      C2761   1.415       .  A
C2760      C2765   1.452       .  S
C2761      C2762   1.417       .  A
C2761      C2768   1.452       .  S
C2762      C2763   1.416       .  A
C2763      C2764   1.411       .  A
C2763      C2766   1.451       .  S
C2764      C2767   1.452       .  S
C2765      N2772   1.157       .  T
C2766      N2771   1.157       .  T
C2767      N2769   1.157       .  T
C2768      N2770   1.157       .  T
C2773      C3709   1.488       .  S
C2773      C2774   1.413       .  A
C2773      C3898   1.414       .  A
C2774      C2775   1.414       .  A
C2774      C2779   1.451       .  S
C2775      C2776   1.414       .  A
C2775      C2782   1.451       .  S
C2776      C3897   1.414       .  A
C2777      C3896   1.414       .  A
C2777      C2778   1.412       .  A
C2777      C2780   1.452       .  S
C2778      C3893   1.414       .  A
C2778      C2781   1.452       .  S
C2779      N2786   1.157   1_565  T
C2780      N2785   1.157       .  T
C2781      N2783   1.157       .  T
C2782      N2784   1.157   1_565  T
C2787      C3710   1.491       .  S
C2787      C2788   1.415       .  A
C2787      C3912   1.414       .  A
C2788      C2789   1.414       .  A
C2788      C2793   1.451   1_565  S
C2789      C2790   1.414       .  A
C2789      C2796   1.451   1_565  S
C2790      C3911   1.415       .  A
C2791      C3910   1.415       .  A
C2791      C2792   1.414       .  A
C2791      C2794   1.451       .  S
C2792      C3907   1.415       .  A
C2792      C2795   1.452       .  S
C2793      N2800   1.157       .  T
C2794      N2799   1.157       .  T
C2795      N2797   1.157       .  T
C2796      N2798   1.157       .  T
C2801      C2802   1.415       .  A
C2801      C2806   1.414       .  A
C2802      C2803   1.414       .  A
C2802      C2807   1.452       .  S
C2803      C2804   1.415       .  A
C2803      C2810   1.452       .  S
C2804      C2805   1.415       .  A
C2805      C2806   1.417       .  A
C2805      C2808   1.450       .  S
C2806      C2809   1.451       .  S
C2807      N2814   1.157       .  T
C2808      N2813   1.157       .  T
C2809      N2811   1.157       .  T
C2810      N2812   1.157       .  T
C2815      C2816   1.414       .  A
C2815      C2820   1.415       .  A
C2816      C2817   1.412       .  A
C2816      C2821   1.452       .  S
C2817      C2818   1.414       .  A
C2817      C2824   1.452       .  S
C2818      C2819   1.414       .  A
C2819      C2820   1.412       .  A
C2819      C2822   1.452       .  S
C2820      C2823   1.452       .  S
C2821      N2828   1.158       .  T
C2822      N2827   1.158       .  T
C2823      N2825   1.157       .  T
C2824      N2826   1.157       .  T
C2829      C3681   1.495       .  S
C2829      C2830   1.416       .  A
C2829      C3954   1.415       .  A
C2830      C2831   1.415       .  A
C2830      C2835   1.452   1_565  S
C2831      C2832   1.416       .  A
C2831      C2838   1.452   1_565  S
C2832      C3953   1.415       .  A
C2833      C3952   1.416       .  A
C2833      C2834   1.416       .  A
C2833      C2836   1.450       .  S
C2834      C3949   1.414       .  A
C2834      C2837   1.451       .  S
C2835      N2842   1.157       .  T
C2836      N2841   1.157       .  T
C2837      N2839   1.157       .  T
C2838      N2840   1.158       .  T
C2843      C3682   1.484       .  S
C2843      C3964   1.413       .  A
C2843      C2848   1.411       .  A
C2844      C3963   1.414       .  A
C2844      C2845   1.414       .  A
C2844      C2849   1.451       .  S
C2845      C3966   1.415       .  A
C2845      C2852   1.452       .  S
C2846      C3965   1.415       .  A
C2846      C2847   1.413       .  A
C2847      C2848   1.410       .  A
C2847      C2850   1.448   1_565  S
C2848      C2851   1.453   1_565  S
C2849      N2856   1.157       .  T
C2850      N2855   1.156       .  T
C2851      N2853   1.157       .  T
C2852      N2854   1.158       .  T
C2857      C2858   1.415   1_556  A
C2857      C2862   1.416   1_556  A
C2858      C2859   1.415       .  A
C2858      C2863   1.451   1_554  S
C2859      C2860   1.415       .  A
C2859      C2866   1.452       .  S
C2860      C2861   1.415       .  A
C2861      C2862   1.418       .  A
C2861      C2864   1.451       .  S
C2862      C2865   1.450   1_554  S
C2863      N2870   1.157       .  T
C2864      N2869   1.157       .  T
C2865      N2867   1.157       .  T
C2866      N2868   1.157       .  T
C2871      C2872   1.415       .  A
C2871      C3996   1.415       .  A
C2872      C2873   1.412       .  A
C2872      C2877   1.453   1_565  S
C2873      C2874   1.417   1_554  A
C2873      C2880   1.452   1_564  S
C2874      C3995   1.416   1_556  A
C2875      C3994   1.415   1_554  A
C2875      C2876   1.415       .  A
C2875      C2878   1.451   1_554  S
C2876      C3991   1.414       .  A
C2876      C2879   1.451       .  S
C2877      N2884   1.157       .  T
C2878      N2883   1.157       .  T
C2879      N2881   1.157       .  T
C2880      N2882   1.157       .  T
C2885      C2886   1.414       .  A
C2885      C2890   1.414       .  A
C2886      C2887   1.411       .  A
C2886      C2891   1.451       .  S
C2887      C2888   1.413       .  A
C2887      C2894   1.452       .  S
C2888      C2889   1.415       .  A
C2889      C2890   1.414       .  A
C2889      C2892   1.451       .  S
C2890      C2893   1.451       .  S
C2891      N2898   1.157       .  T
C2892      N2897   1.158       .  T
C2893      N2895   1.158       .  T
C2894      N2896   1.157       .  T
C2899      C2900   1.415       .  A
C2899      C2904   1.416       .  A
C2900      C2901   1.414       .  A
C2900      C2905   1.452       .  S
C2901      C2902   1.415       .  A
C2901      C2908   1.452       .  S
C2902      C2903   1.416       .  A
C2903      C2904   1.415       .  A
C2903      C2906   1.452       .  S
C2904      C2907   1.452       .  S
C2905      N2912   1.157       .  T
C2906      N2911   1.157       .  T
C2907      N2909   1.157       .  T
C2908      N2910   1.157       .  T
C2913      C2914   1.414       .  A
C2914      C2915   1.418       .  A
C2914      C2919   1.451       .  S
C2915      C2916   1.416   1_454  A
C2915      C2922   1.451   1_554  S
C2917      C2918   1.416       .  A
C2917      C2920   1.451   1_554  S
C2918      C2921   1.452       .  S
C2919      N2926   1.157       .  T
C2920      N2925   1.157       .  T
C2921      N2923   1.157       .  T
C2922      N2924   1.157       .  T
C2927      C2928   1.415       .  A
C2927      C4052   1.414       .  A
C2928      C2929   1.414       .  A
C2928      C2933   1.452       .  S
C2929      C2930   1.415       .  A
C2929      C2936   1.451       .  S
C2930      C4051   1.415       .  A
C2931      C4050   1.414       .  A
C2931      C2932   1.413       .  A
C2931      C2934   1.451       .  S
C2932      C4047   1.414       .  A
C2932      C2935   1.451       .  S
C2933      N2940   1.157       .  T
C2934      N2939   1.157       .  T
C2935      N2937   1.157       .  T
C2936      N2938   1.157       .  T
C2941      C4062   1.414       .  A
C2941      C2946   1.414       .  A
C2942      C4061   1.414       .  A
C2942      C2943   1.413       .  A
C2942      C2947   1.452       .  S
C2943      C4064   1.415       .  A
C2943      C2950   1.451       .  S
C2944      C4063   1.414       .  A
C2944      C2945   1.414       .  A
C2945      C2946   1.415       .  A
C2945      C2948   1.451   1_565  S
C2946      C2949   1.451   1_565  S
C2947      N2954   1.157       .  T
C2948      N2953   1.157       .  T
C2949      N2951   1.157       .  T
C2950      N2952   1.157       .  T
C2955      C2956   1.415       .  A
C2956      C2957   1.414       .  A
C2956      C2961   1.453   1_565  S
C2957      C2958   1.417   1_554  A
C2957      C2964   1.451   1_564  S
C2959      C2960   1.418       .  A
C2959      C2962   1.450   1_554  S
C2960      C2963   1.450       .  S
C2961      N2968   1.157       .  T
C2962      N2967   1.157       .  T
C2963      N2965   1.157       .  T
C2964      N2966   1.158       .  T
C2969      C2970   1.415       .  A
C2969      C2974   1.415       .  A
C2970      C2971   1.416       .  A
C2970      C2975   1.452       .  S
C2971      C2972   1.416       .  A
C2971      C2978   1.451       .  S
C2972      C2973   1.416       .  A
C2973      C2974   1.419       .  A
C2973      C2976   1.451       .  S
C2974      C2977   1.451       .  S
C2975      N2982   1.157       .  T
C2976      N2981   1.157       .  T
C2977      N2979   1.157       .  T
C2978      N2980   1.158       .  T
C2983      C2984   1.414       .  A
C2983      C2988   1.413       .  A
C2984      C2985   1.414       .  A
C2984      C2989   1.451       .  S
C2985      C2986   1.415       .  A
C2985      C2992   1.451       .  S
C2986      C2987   1.413       .  A
C2987      C2988   1.411       .  A
C2987      C2990   1.451       .  S
C2988      C2991   1.449       .  S
C2989      N2996   1.157       .  T
C2990      N2995   1.157       .  T
C2991      N2993   1.156       .  T
C2992      N2994   1.157       .  T
C2997      C2998   1.415       .  A
C2997      C3002   1.416       .  A
C2998      C2999   1.412       .  A
C2998      C3003   1.452       .  S
C2999      C3000   1.416       .  A
C2999      C3006   1.453       .  S
C3000      C3001   1.414       .  A
C3001      C3002   1.414       .  A
C3001      C3004   1.451       .  S
C3002      C3005   1.451       .  S
C3003      N3010   1.157       .  T
C3004      N3009   1.157       .  T
C3005      N3007   1.157       .  T
C3006      N3008   1.158       .  T
C3011      C4132   1.415       .  A
C3011      C3016   1.415       .  A
C3012      C4131   1.416   1_545  A
C3012      C3013   1.418       .  A
C3012      C3017   1.450       .  S
C3013      C3014   1.416   1_545  A
C3013      C3020   1.450       .  S
C3014      C4135   1.415       .  A
C3015      C4134   1.417       .  A
C3015      C3016   1.416       .  A
C3015      C3018   1.451       .  S
C3016      C3019   1.452       .  S
C3017      N3024   1.157       .  T
C3018      N3023   1.157       .  T
C3019      N3021   1.157       .  T
C3020      N3022   1.157       .  T
C3025      C3026   1.415       .  A
C3026      C3027   1.414       .  A
C3026      C3031   1.452       .  S
C3027      C3028   1.416       .  A
C3027      C3034   1.452       .  S
C3029      C3030   1.418       .  A
C3029      C3032   1.449       .  S
C3030      C3033   1.449       .  S
C3031      N3038   1.157       .  T
C3032      N3037   1.157       .  T
C3033      N3035   1.157       .  T
C3034      N3036   1.157   1_455  T
C3039      C3044   1.414       .  A
C3040      C3041   1.414       .  A
C3040      C3045   1.451       .  S
C3041      C3048   1.451       .  S
C3042      C3043   1.414       .  A
C3043      C3044   1.414       .  A
C3043      C3046   1.451       .  S
C3044      C3047   1.451       .  S
C3045      N3052   1.157       .  T
C3046      N3051   1.157       .  T
C3047      N3049   1.157       .  T
C3048      N3050   1.157       .  T
C3053      C3054   1.414       .  A
C3054      C3055   1.413       .  A
C3054      C3059   1.451       .  S
C3055      C3056   1.414       .  A
C3055      C3062   1.452       .  S
C3057      C3058   1.414       .  A
C3057      C3060   1.451       .  S
C3058      C3061   1.451       .  S
C3059      N3066   1.157       .  T
C3060      N3065   1.157       .  T
C3061      N3063   1.157       .  T
C3062      N3064   1.157       .  T
C3067      C4188   1.416       .  A
C3068      C4187   1.416       .  A
C3068      C3069   1.416       .  A
C3068      C3073   1.452       .  S
C3069      C4190   1.415       .  A
C3069      C3076   1.451       .  S
C3070      C4189   1.416       .  A
C3071      C3072   1.419       .  A
C3071      C3074   1.447       .  S
C3072      C3075   1.448       .  S
C3073      N3080   1.157       .  T
C3074      N3079   1.156       .  T
C3075      N3077   1.156       .  T
C3076      N3078   1.157       .  T
C3081      C3082   1.423       .  A
C3081      C3086   1.427       .  A
C3082      C3083   1.416       .  A
C3082      C3087   1.451       .  S
C3083      C3084   1.412       .  A
C3083      C3090   1.452       .  S
C3084      C3085   1.408       .  A
C3085      C3086   1.418       .  A
C3085      C3088   1.452       .  S
C3086      C3089   1.450       .  S
C3087      N3094   1.158       .  T
C3088      N3093   1.157       .  T
C3089      N3091   1.157       .  T
C3090      N3092   1.157       .  T
C3095      C3096   1.415       .  A
C3095      C3100   1.414       .  A
C3096      C3097   1.414       .  A
C3096      C3101   1.452       .  S
C3097      C3098   1.416       .  A
C3097      C3104   1.452       .  S
C3098      C3099   1.415       .  A
C3099      C3100   1.412       .  A
C3099      C3102   1.448       .  S
C3100      C3103   1.453       .  S
C3101      N3108   1.157       .  T
C3102      N3107   1.156       .  T
C3103      N3105   1.157       .  T
C3104      N3106   1.158       .  T
C3109      C3110   1.413       .  A
C3109      C3114   1.414       .  A
C3110      C3111   1.417       .  A
C3110      C3115   1.451       .  S
C3111      C3112   1.415       .  A
C3111      C3118   1.450       .  S
C3112      C3113   1.415       .  A
C3113      C3114   1.414       .  A
C3113      C3116   1.451       .  S
C3114      C3117   1.451       .  S
C3115      N3122   1.157       .  T
C3116      N3121   1.157       .  T
C3117      N3119   1.157       .  T
C3118      N3120   1.157       .  T
C3123      C3124   1.419   1_565  A
C3123      C4248   1.418       .  A
C3124      C3125   1.417       .  A
C3124      C3129   1.451       .  S
C3125      C3126   1.413   1_545  A
C3125      C3132   1.451       .  S
C3126      C4247   1.415       .  A
C3127      C4246   1.416       .  A
C3127      C3128   1.416       .  A
C3127      C3130   1.452       .  S
C3128      C4243   1.419       .  A
C3128      C3131   1.452       .  S
C3129      N3136   1.157       .  T
C3130      N3135   1.157       .  T
C3131      N3133   1.158       .  T
C3132      N3134   1.157       .  T
C3137      C3138   1.422   1_455  A
C3138      C3139   1.418       .  A
C3138      C3143   1.451       .  S
C3139      C3140   1.412   1_655  A
C3139      C3146   1.451       .  S
C3141      C3142   1.418       .  A
C3141      C3144   1.452       .  S
C3142      C3145   1.451       .  S
C3143      N3150   1.157       .  T
C3144      N3149   1.157       .  T
C3145      N3147   1.157       .  T
C3146      N3148   1.157       .  T
C3151      C3156   1.412       .  A
C3152      C3153   1.413       .  A
C3152      C3157   1.452       .  S
C3153      C3160   1.451       .  S
C3154      C3155   1.414       .  A
C3155      C3156   1.412       .  A
C3155      C3158   1.451       .  S
C3156      C3159   1.451       .  S
C3157      N3164   1.157       .  T
C3158      N3163   1.157   1_455  T
C3159      N3161   1.157   1_455  T
C3160      N3162   1.158       .  T
C3165      C3166   1.414       .  A
C3166      C3167   1.415       .  A
C3166      C3171   1.451   1_455  S
C3167      C3168   1.414       .  A
C3167      C3174   1.451   1_455  S
C3169      C3170   1.415       .  A
C3169      C3172   1.452       .  S
C3170      C3173   1.452       .  S
C3171      N3178   1.157       .  T
C3172      N3177   1.157       .  T
C3173      N3175   1.158       .  T
C3174      N3176   1.157       .  T
C3179      C4304   1.425       .  A
C3180      C3181   1.418       .  A
C3180      C3185   1.450       .  S
C3181      C3188   1.451       .  S
C3182      C4303   1.412       .  A
C3183      C4302   1.412       .  A
C3183      C3184   1.419       .  A
C3183      C3186   1.452   1_455  S
C3184      C4299   1.425       .  A
C3184      C3187   1.451   1_455  S
C3185      N3192   1.158       .  T
C3186      N3191   1.157       .  T
C3187      N3189   1.158       .  T
C3188      N3190   1.157       .  T
C3193      C3194   1.419       .  A
C3193      C3198   1.419       .  A
C3194      C3195   1.414       .  A
C3194      C3199   1.451       .  S
C3195      C3196   1.417       .  A
C3195      C3202   1.451       .  S
C3196      C3197   1.418       .  A
C3197      C3198   1.412       .  A
C3197      C3200   1.453       .  S
C3198      C3201   1.453       .  S
C3199      N3206   1.157       .  T
C3200      N3205   1.158       .  T
C3201      N3203   1.158       .  T
C3202      N3204   1.157       .  T
C3207      C3208   1.418       .  A
C3207      C3212   1.417       .  A
C3208      C3209   1.413       .  A
C3208      C3213   1.451       .  S
C3209      C3210   1.417       .  A
C3209      C3216   1.451       .  S
C3210      C3211   1.414       .  A
C3211      C3212   1.410       .  A
C3211      C3214   1.453       .  S
C3212      C3215   1.452       .  S
C3213      N3220   1.157       .  T
C3214      N3219   1.157       .  T
C3215      N3217   1.158       .  T
C3216      N3218   1.158       .  T
C3221      C3222   1.414       .  A
C3221      C4346   1.414       .  A
C3222      C3223   1.415       .  A
C3222      C3227   1.451       .  S
C3223      C3224   1.413       .  A
C3223      C3230   1.451       .  S
C3224      C4345   1.415       .  A
C3225      C4344   1.416       .  A
C3225      C3226   1.415       .  A
C3225      C3228   1.452   1_565  S
C3226      C4341   1.414       .  A
C3226      C3229   1.452   1_565  S
C3227      N3234   1.157       .  T
C3228      N3233   1.157       .  T
C3229      N3231   1.158       .  T
C3230      N3232   1.157       .  T
C3235      C3236   1.414       .  A
C3235      C4360   1.413       .  A
C3236      C3237   1.415       .  A
C3236      C3241   1.452       .  S
C3237      C3238   1.415       .  A
C3237      C3244   1.451       .  S
C3238      C4359   1.414       .  A
C3239      C4358   1.414       .  A
C3239      C3240   1.412       .  A
C3239      C3242   1.452   1_565  S
C3240      C4355   1.414       .  A
C3240      C3243   1.452   1_565  S
C3241      N3248   1.157       .  T
C3242      N3247   1.157       .  T
C3243      N3245   1.158       .  T
C3244      N3246   1.158       .  T
C3249      C3250   1.417       .  A
C3249      C3254   1.417       .  A
C3250      C3251   1.419       .  A
C3250      C3255   1.451       .  S
C3251      C3252   1.416       .  A
C3251      C3258   1.449       .  S
C3252      C3253   1.418       .  A
C3253      C3254   1.420       .  A
C3253      C3256   1.451       .  S
C3254      C3257   1.451       .  S
C3255      N3262   1.157       .  T
C3256      N3261   1.157       .  T
C3257      N3259   1.157       .  T
C3258      N3260   1.157       .  T
C3263      C3264   1.413       .  A
C3263      C3268   1.413       .  A
C3264      C3265   1.411       .  A
C3264      C3269   1.452       .  S
C3265      C3266   1.414       .  A
C3265      C3272   1.452       .  S
C3266      C3267   1.413       .  A
C3267      C3268   1.412       .  A
C3267      C3270   1.452       .  S
C3268      C3271   1.452       .  S
C3269      N3276   1.158       .  T
C3270      N3275   1.157       .  T
C3271      N3273   1.157       .  T
C3272      N3274   1.157       .  T
C3277      C3278   1.415       .  A
C3277      C3282   1.416       .  A
C3278      C3279   1.415       .  A
C3278      C3283   1.452       .  S
C3279      C3280   1.416       .  A
C3279      C3286   1.452       .  S
C3280      C3281   1.415       .  A
C3281      C3282   1.415       .  A
C3281      C3284   1.451       .  S
C3282      C3285   1.452       .  S
C3283      N3290   1.157       .  T
C3284      N3289   1.157       .  T
C3285      N3287   1.157       .  T
C3286      N3288   1.157       .  T
C3291      C4412   1.417       .  A
C3291      C3296   1.419   1_565  A
C3292      C4411   1.420       .  A
C3292      C3293   1.418       .  A
C3292      C3297   1.451       .  S
C3293      C3294   1.414       .  A
C3293      C3300   1.452       .  S
C3294      C4415   1.414       .  A
C3295      C4414   1.414   1_545  A
C3295      C3296   1.417       .  A
C3295      C3298   1.451       .  S
C3296      C3299   1.451       .  S
C3297      N3304   1.157       .  T
C3298      N3303   1.157       .  T
C3299      N3301   1.157       .  T
C3300      N3302   1.157       .  T
C3305      C3306   1.412   1_455  A
C3306      C3307   1.418       .  A
C3306      C3311   1.451       .  S
C3307      C3308   1.420   1_655  A
C3307      C3314   1.449       .  S
C3309      C3310   1.417       .  A
C3309      C3312   1.451       .  S
C3310      C3313   1.452       .  S
C3311      N3318   1.157       .  T
C3312      N3317   1.158       .  T
C3313      N3315   1.157       .  T
C3314      N3316   1.157       .  T
C3319      C3320   1.414   1_455  A
C3320      C3321   1.412       .  A
C3320      C3325   1.452       .  S
C3321      C3322   1.416   1_655  A
C3321      C3328   1.452       .  S
C3323      C3324   1.413       .  A
C3323      C3326   1.452       .  S
C3324      C3327   1.452       .  S
C3325      N3332   1.157       .  T
C3326      N3331   1.157       .  T
C3327      N3329   1.158       .  T
C3328      N3330   1.158       .  T
C3333      C3334   1.413       .  A
C3334      C3335   1.413       .  A
C3334      C3339   1.451       .  S
C3335      C3336   1.414       .  A
C3335      C3342   1.451       .  S
C3337      C3338   1.416       .  A
C3337      C3340   1.450       .  S
C3338      C3341   1.450       .  S
C3339      N3346   1.157   1_455  T
C3340      N3345   1.157       .  T
C3341      N3343   1.157       .  T
C3342      N3344   1.157   1_455  T
C3347      C4468   1.420   1_455  A
C3348      C4467   1.418   1_645  A
C3348      C3349   1.417       .  A
C3348      C3353   1.451       .  S
C3349      C4470   1.414   1_645  A
C3349      C3356   1.451       .  S
C3350      C4469   1.413   1_455  A
C3351      C3352   1.418       .  A
C3351      C3354   1.452       .  S
C3352      C3355   1.451       .  S
C3353      N3360   1.157       .  T
C3354      N3359   1.157       .  T
C3355      N3357   1.157       .  T
C3356      N3358   1.157       .  T
O3362      V3369   1.906   1_455  S
O3363      V3369   1.903   1_565  S
O3363      C3373   1.265   1_655  A
O3364      C3374   1.266   1_655  A
O3366      V3370   1.904   1_565  S
O3367      C3372   1.267       .  A
O3368      V3370   1.909       .  S
O3368      C3371   1.267       .  A
C3373      C4439   1.491       .  S
C3374      C4453   1.491       .  S
O3375      V3383   1.909       .  S
O3376      V3383   1.909       .  S
O3377      V3383   1.905       .  S
O3378      V3383   1.909       .  S
O3379      V3384   1.903       .  S
O3379      C3388   1.265       .  A
O3380      V3384   1.904   1_655  S
O3380      C3387   1.265   1_655  A
O3381      V3384   1.905       .  S
O3381      C3386   1.265       .  A
O3382      V3384   1.906   1_655  S
O3382      C3385   1.266   1_655  A
C3385      C4425   1.497       .  S
C3386      C3778   1.477       .  S
C3387      C4442   1.492       .  S
C3388      C4456   1.490       .  S
O3390      V3397   1.905       .  S
O3390      C3400   1.265       .  A
O3391      V3397   1.908       .  S
O3391      C3401   1.267       .  A
O3392      C3402   1.266       .  A
O3393      C3402   1.263       .  A
O3394      V3398   1.902       .  S
O3394      C3401   1.264       .  A
O3396      V3398   1.916       .  S
O3396      C3399   1.269       .  A
V3397      V3398   2.085       .  T
C3399      C4411   1.509       .  S
C3400      C3792   1.481       .  S
C3401      C4400   1.497       .  S
C3402      C4383   1.485       .  S
O3403      V3411   1.900       .  S
O3403      C3413   1.265       .  A
O3404      V3411   1.902       .  S
O3404      C3414   1.264       .  A
O3405      V3411   1.902       .  S
O3405      C3415   1.265       .  A
O3406      V3411   1.904       .  S
O3406      C3416   1.266       .  A
O3407      V3412   1.904       .  S
O3407      C3416   1.265       .  A
O3408      V3412   1.902       .  S
O3408      C3415   1.264       .  A
O3409      V3412   1.915       .  S
O3409      C3414   1.267       .  A
O3410      V3412   1.914       .  S
O3410      C3413   1.269       .  A
V3411      V3412   2.085       .  T
C3413      C4369   1.506       .  S
C3414      C3806   1.478       .  S
C3415      C4386   1.485       .  S
C3416      C4397   1.495       .  S
O3418      V3425   1.908       .  S
O3418      C3428   1.265       .  A
O3419      V3425   1.903       .  S
O3419      C3429   1.265       .  A
O3420      C3430   1.265       .  A
O3422      V3426   1.908       .  S
O3424      V3426   1.905       .  S
C3427      C4467   1.502       .  S
C3428      C3708   1.474       .  S
C3429      C4341   1.490       .  S
C3430      C4355   1.489       .  S
O3432      V3439   1.906       .  S
O3432      C3442   1.265       .  A
O3433      V3439   1.902       .  S
O3433      C3443   1.265       .  A
O3434      C3444   1.264       .  A
O3435      C3444   1.264       .  A
O3436      V3440   1.901       .  S
O3436      C3443   1.266       .  A
O3438      V3440   1.908       .  S
O3438      C3441   1.267       .  A
V3439      V3440   2.084       .  T
C3441      C4428   1.504   1_655  S
C3442      C3722   1.476       .  S
C3443      C4313   1.504       .  S
C3444      C4327   1.480       .  S
O3445      V3453   1.907       .  S
O3445      C3455   1.266       .  A
O3446      V3453   1.906       .  S
O3446      C3456   1.265       .  A
O3447      V3453   1.904       .  S
O3447      C3457   1.265       .  A
O3448      V3453   1.906       .  S
O3448      C3458   1.266       .  A
O3449      V3454   1.904       .  S
O3450      V3454   1.903       .  S
O3451      V3454   1.903       .  S
O3452      V3454   1.907       .  S
C3455      C4414   1.498       .  S
C3457      C4358   1.489       .  S
C3458      C4344   1.491       .  S
O3459      V3467   1.909       .  S
O3459      C3469   1.266       .  A
O3460      V3467   1.903       .  S
O3460      C3470   1.266       .  A
O3461      V3467   1.897       .  S
O3461      C3471   1.264       .  A
O3462      V3467   1.901       .  S
O3462      C3472   1.264       .  A
O3463      V3468   1.903       .  S
O3463      C3472   1.267       .  A
O3464      V3468   1.898       .  S
O3464      C3471   1.264       .  A
O3465      V3468   1.906       .  S
O3465      C3470   1.264       .  A
O3466      V3468   1.906       .  S
O3466      C3469   1.266       .  A
V3467      V3468   2.085       .  T
C3469      C4372   1.494       .  S
C3470      C3750   1.472       .  S
C3471      C4330   1.480       .  S
C3472      C4316   1.503       .  S
O3473      V3481   1.921       .  S
O3476      V3481   1.903       .  S
O3477      V3482   1.911       .  S
O3477      C3486   1.267       .  A
O3478      C3485   1.266       .  A
O3479      V3482   1.904       .  S
O3479      C3484   1.265       .  A
C3483      C4302   1.499       .  S
C3484      C3540   1.484       .  S
C3485      C4274   1.489       .  S
C3486      C4285   1.494       .  S
O3487      V3495   1.906       .  S
O3487      C3497   1.266       .  A
O3488      V3495   1.903       .  S
O3488      C3498   1.265       .  A
O3489      V3495   1.903       .  S
O3489      C3499   1.265       .  A
O3490      V3495   1.907       .  S
O3490      C3500   1.266       .  A
O3491      V3496   1.907       .  S
O3492      V3496   1.902       .  S
O3493      V3496   1.918       .  S
O3494      V3496   1.916       .  S
C3497      C4257   1.510       .  S
C3498      C3554   1.482       .  S
C3499      C4271   1.487       .  S
C3500      C4288   1.494       .  S
O3501      V3509   1.909       .  S
O3501      C3511   1.267       .  A
O3503      C3513   1.265       .  A
O3504      V3509   1.900       .  S
O3504      C3514   1.263       .  A
O3505      V3510   1.911       .  S
O3505      C3514   1.266       .  A
O3506      C3513   1.266       .  A
O3507      V3510   1.907       .  S
O3507      C3512   1.265       .  A
V3509      V3510   2.086       .  T
C3511      C4243   1.503       .  S
C3513      C4215   1.494       .  S
C3514      C4229   1.487       .  S
O3515      V3523   1.906       .  S
O3515      C3525   1.266       .  A
O3516      V3523   1.901       .  S
O3516      C3526   1.265       .  A
O3517      V3523   1.906       .  S
O3517      C3527   1.265       .  A
O3518      V3523   1.908       .  S
O3518      C3528   1.266       .  A
O3519      V3524   1.905       .  S
O3519      C3528   1.266       .  A
O3520      V3524   1.910       .  S
O3520      C3527   1.265       .  A
O3521      V3524   1.917       .  S
O3521      C3526   1.267       .  A
O3522      V3524   1.914       .  S
O3522      C3525   1.269       .  A
V3523      V3524   2.083       .  T
C3525      C4201   1.516       .  S
C3526      C3582   1.479       .  S
C3527      C4232   1.490       .  S
C3528      C4218   1.496       .  S
O3529      V3537   1.907       .  S
O3529      C3539   1.266       .  A
O3531      C3541   1.266       .  A
O3532      V3537   1.904       .  S
O3532      C3542   1.265       .  A
O3533      V3538   1.903       .  S
O3535      V3538   1.920       .  S
C3539      C4190   1.502       .  S
C3541      C4162   1.491       .  S
C3542      C4173   1.489       .  S
O3543      V3551   1.905       .  S
O3543      C3553   1.265       .  A
O3544      V3551   1.902       .  S
O3544      C3554   1.265       .  A
O3545      V3551   1.903       .  S
O3545      C3555   1.265       .  A
O3546      V3551   1.906       .  S
O3546      C3556   1.266       .  A
O3547      V3552   1.904       .  S
O3548      V3552   1.902       .  S
O3549      V3552   1.919       .  S
O3550      V3552   1.919       .  S
C3553      C4145   1.500       .  S
C3555      C4176   1.489       .  S
C3556      C4159   1.492       .  S
O3558      V3565   1.911       .  S
O3558      C3568   1.266       .  A
O3559      V3565   1.906       .  S
O3559      C3569   1.266       .  A
O3560      C3570   1.265       .  A
O3561      C3570   1.265       .  A
O3562      V3566   1.902       .  S
O3562      C3569   1.265       .  A
O3564      V3566   1.903       .  S
O3564      C3567   1.265       .  A
V3565      V3566   2.086       .  T
C3567      C4131   1.498       .  S
C3569      C4103   1.490       .  S
C3570      C4117   1.496       .  S
O3571      V3579   1.904       .  S
O3571      C3581   1.265       .  A
O3572      V3579   1.900       .  S
O3572      C3582   1.264       .  A
O3573      V3579   1.905       .  S
O3573      C3583   1.265       .  A
O3574      V3579   1.905       .  S
O3574      C3584   1.266       .  A
O3575      V3580   1.899       .  S
O3575      C3584   1.264       .  A
O3576      V3580   1.902       .  S
O3576      C3583   1.265       .  A
O3577      V3580   1.918       .  S
O3577      C3582   1.268       .  A
O3578      V3580   1.916       .  S
O3578      C3581   1.268       .  A
V3579      V3580   2.086       .  T
C3581      C4089   1.498       .  S
C3583      C4106   1.489       .  S
C3584      C4120   1.495       .  S
O3585      V3593   1.903       .  S
O3585      C3595   1.265       .  A
O3587      C3597   1.265       .  A
O3588      V3593   1.905       .  S
O3588      C3598   1.266       .  A
O3589      V3594   1.904       .  S
O3591      V3594   1.911       .  S
C3595      C4075   1.496       .  S
C3596      C3652   1.478       .  S
C3597      C4061   1.491       .  S
C3598      C4050   1.489       .  S
O3599      V3607   1.917   1_455  S
O3599      C3609   1.268   1_455  A
O3601      C3611   1.264       .  A
O3602      V3607   1.902       .  S
O3602      C3612   1.265       .  A
O3603      V3608   1.904       .  S
O3603      C3612   1.265       .  A
O3604      C3611   1.266       .  A
O3605      V3608   1.900   1_455  S
O3605      C3610   1.264   1_455  A
V3607      V3608   2.086       .  T
C3609      C4033   1.495       .  S
C3610      C3666   1.479   1_655  S
C3611      C4022   1.489       .  S
C3612      C4005   1.490       .  S
O3613      V3621   1.900       .  S
O3613      C3623   1.264       .  A
O3614      V3621   1.900       .  S
O3614      C3624   1.264       .  A
O3615      V3621   1.904       .  S
O3615      C3625   1.266       .  A
O3616      V3621   1.905       .  S
O3616      C3626   1.265       .  A
O3617      V3622   1.903       .  S
O3618      V3622   1.902       .  S
O3619      V3622   1.909       .  S
O3620      V3622   1.909       .  S
C3623      C3991   1.491       .  S
C3624      C3680   1.471       .  S
C3625      C4047   1.489       .  S
C3626      C4064   1.492       .  S
O3627      V3635   1.919       .  S
O3627      C3637   1.269       .  A
O3628      V3635   1.916       .  S
O3628      C3638   1.268       .  A
O3629      V3635   1.902       .  S
O3629      C3639   1.265       .  A
O3630      V3635   1.908       .  S
O3630      C3640   1.266       .  A
O3631      V3636   1.902       .  S
O3631      C3640   1.265       .  A
O3632      V3636   1.903       .  S
O3632      C3639   1.265       .  A
O3633      V3636   1.897       .  S
O3633      C3638   1.263       .  A
O3634      V3636   1.895       .  S
O3634      C3637   1.265       .  A
V3635      V3636   2.085       .  T
C3637      C3980   1.513       .  S
C3638      C3694   1.475       .  S
C3639      C4008   1.488       .  S
C3640      C4019   1.489       .  S
O3641      V3649   1.912   1_455  S
O3644      V3649   1.906       .  S
O3645      V3650   1.906       .  S
O3645      C3654   1.266       .  A
O3646      C3653   1.266       .  A
O3647      V3650   1.906       .  S
O3647      C3652   1.266       .  A
C3651      C4299   1.522       .  S
C3653      C3966   1.489       .  S
C3654      C3952   1.497       .  S
O3655      V3663   1.908       .  S
O3655      C3665   1.266       .  A
O3657      C3667   1.265       .  A
O3658      V3663   1.907   1_655  S
O3658      C3668   1.266       .  A
O3659      V3664   1.904   1_655  S
O3659      C3668   1.265       .  A
O3660      C3667   1.264       .  A
O3661      V3664   1.916       .  S
O3661      C3666   1.267       .  A
V3663      V3664   2.086       .  T
C3665      C4260   1.503       .  S
C3667      C3938   1.486       .  S
C3668      C3921   1.495       .  S
O3669      V3677   1.906       .  S
O3670      V3677   1.905       .  S
O3671      V3677   1.907       .  S
O3671      C3681   1.267       .  A
O3672      V3677   1.903       .  S
O3672      C3682   1.264       .  A
O3673      V3678   1.897       .  S
O3674      V3678   1.900       .  S
O3675      V3678   1.902       .  S
O3675      C3680   1.265       .  A
O3676      V3678   1.907       .  S
O3676      C3679   1.266       .  A
C3679      C4246   1.498       .  S
O3683      V3691   1.903       .  S
O3683      C3693   1.264       .  A
O3684      V3691   1.899       .  S
O3684      C3694   1.264       .  A
O3685      V3691   1.911       .  S
O3685      C3695   1.267       .  A
O3686      V3691   1.902       .  S
O3686      C3696   1.265       .  A
O3687      V3692   1.898       .  S
O3687      C3696   1.264       .  A
O3688      V3692   1.902       .  S
O3688      C3695   1.265       .  A
O3689      V3692   1.914       .  S
O3689      C3694   1.267       .  A
O3690      V3692   1.914       .  S
O3690      C3693   1.268       .  A
V3691      V3692   2.086       .  T
C3693      C4204   1.493       .  S
C3695      C3924   1.495       .  S
C3696      C3935   1.487       .  S
O3698      V3705   1.904       .  S
O3699      V3705   1.907       .  S
O3701      C3710   1.266       .  A
O3702      V3706   1.903       .  S
O3702      C3709   1.265       .  A
O3704      V3706   1.912       .  S
C3707      C4078   1.497       .  S
O3711      V3719   1.906       .  S
O3711      C3721   1.266       .  A
O3713      C3723   1.265       .  A
O3714      V3719   1.903       .  S
O3714      C3724   1.265       .  A
O3715      V3720   1.898       .  S
O3715      C3724   1.264       .  A
O3716      C3723   1.265       .  A
O3717      V3720   1.909       .  S
O3717      C3722   1.266       .  A
V3719      V3720   2.082       .  T
C3721      C4036   1.496       .  S
C3723      C3879   1.488       .  S
C3724      C3865   1.487       .  S
O3725      V3733   1.910       .  S
O3726      V3733   1.909       .  S
O3727      V3733   1.902       .  S
O3728      V3733   1.903       .  S
O3729      V3734   1.904       .  S
O3729      C3738   1.266       .  A
O3730      V3734   1.907       .  S
O3730      C3737   1.266       .  A
O3731      V3734   1.903       .  S
O3731      C3736   1.265       .  A
O3732      V3734   1.901       .  S
O3732      C3735   1.265       .  A
C3735      C3994   1.492       .  S
C3737      C3896   1.488       .  S
C3738      C3910   1.491       .  S
O3739      V3747   1.916       .  S
O3739      C3749   1.268       .  A
O3740      V3747   1.912       .  S
O3740      C3750   1.267       .  A
O3741      V3747   1.903       .  S
O3741      C3751   1.265       .  A
O3742      V3747   1.897       .  S
O3742      C3752   1.263       .  A
O3743      V3748   1.902       .  S
O3743      C3752   1.265       .  A
O3744      V3748   1.901       .  S
O3744      C3751   1.264       .  A
O3745      V3748   1.897       .  S
O3745      C3750   1.263       .  A
O3746      V3748   1.899       .  S
O3746      C3749   1.266       .  A
V3747      V3748   2.085       .  T
C3749      C3977   1.514       .  S
C3751      C3882   1.487       .  S
C3752      C3868   1.483       .  S
O3754      V3761   1.908       .  S
O3754      C3764   1.266       .  A
O3755      V3761   1.895       .  S
O3755      C3765   1.263       .  A
O3756      C3766   1.266       .  A
O3758      V3762   1.891       .  S
O3760      V3762   1.921       .  S
C3763      C4187   1.501       .  S
C3765      C3851   1.498       .  S
C3766      C3840   1.497       .  S
O3767      V3775   1.917       .  S
O3768      V3775   1.908       .  S
O3769      V3775   1.890       .  S
O3770      V3775   1.891       .  S
O3771      V3776   1.901       .  S
O3771      C3780   1.266       .  A
O3772      V3776   1.898       .  S
O3772      C3779   1.264       .  A
O3773      V3776   1.907       .  S
O3773      C3778   1.266       .  A
O3774      V3776   1.906       .  S
O3774      C3777   1.265       .  A
C3777      C4148   1.499       .  S
C3779      C3854   1.500       .  S
C3780      C3837   1.497       .  S
O3782      V3789   1.914       .  S
O3782      C3792   1.267       .  A
O3783      V3789   1.905       .  S
O3783      C3793   1.265       .  A
O3784      C3794   1.265       .  A
O3785      C3794   1.265       .  A
O3786      V3790   1.904       .  S
O3786      C3793   1.265       .  A
O3788      V3790   1.907       .  S
O3788      C3791   1.267       .  A
V3789      V3790   2.085       .  T
C3791      C4134   1.502       .  S
C3793      C3826   1.491       .  S
C3794      C3809   1.488       .  S
O3795      V3803   1.914       .  S
O3795      C3805   1.268       .  A
O3796      V3803   1.914       .  S
O3796      C3806   1.267       .  A
O3797      V3803   1.907       .  S
O3797      C3807   1.266       .  A
O3798      V3803   1.905       .  S
O3798      C3808   1.265       .  A
O3799      V3804   1.904       .  S
O3799      C3808   1.265       .  A
O3800      V3804   1.902       .  S
O3800      C3807   1.264       .  A
O3801      V3804   1.903       .  S
O3801      C3806   1.265       .  A
O3802      V3804   1.905       .  S
O3802      C3805   1.266       .  A
V3803      V3804   2.085       .  T
C3805      C4092   1.498       .  S
C3807      C3812   1.488       .  S
C3808      C3823   1.491       .  S
C3809      C3810   1.414       .  A
C3809      C3814   1.413       .  A
C3810      C3811   1.413       .  A
C3810      C3815   1.451       .  S
C3811      C3812   1.413       .  A
C3811      C3818   1.451       .  S
C3812      C3813   1.414       .  A
C3813      C3814   1.414       .  A
C3813      C3816   1.451       .  S
C3814      C3817   1.451       .  S
C3815      N3822   1.157       .  T
C3816      N3821   1.157       .  T
C3817      N3819   1.157       .  T
C3818      N3820   1.157       .  T
C3823      C3824   1.414       .  A
C3823      C3828   1.414       .  A
C3824      C3825   1.413       .  A
C3824      C3829   1.452       .  S
C3825      C3826   1.414       .  A
C3825      C3832   1.451       .  S
C3826      C3827   1.415       .  A
C3827      C3828   1.414       .  A
C3827      C3830   1.451       .  S
C3828      C3831   1.451       .  S
C3829      N3836   1.157       .  T
C3830      N3835   1.157       .  T
C3831      N3833   1.157       .  T
C3832      N3834   1.157       .  T
C3837      C3838   1.417       .  A
C3838      C3839   1.412       .  A
C3838      C3843   1.452   1_455  S
C3839      C3840   1.416       .  A
C3839      C3846   1.452   1_455  S
C3841      C3842   1.411       .  A
C3841      C3844   1.451       .  S
C3842      C3845   1.450       .  S
C3843      N3850   1.157       .  T
C3844      N3849   1.157       .  T
C3845      N3847   1.156       .  T
C3846      N3848   1.157       .  T
C3851      C3852   1.419       .  A
C3852      C3853   1.412       .  A
C3852      C3857   1.453   1_455  S
C3853      C3854   1.420       .  A
C3853      C3860   1.453   1_455  S
C3855      C3856   1.409       .  A
C3855      C3858   1.454       .  S
C3856      C3859   1.454       .  S
C3857      N3864   1.158       .  T
C3858      N3863   1.158       .  T
C3859      N3861   1.157       .  T
C3860      N3862   1.157       .  T
C3865      C3866   1.414       .  A
C3865      C3870   1.415       .  A
C3866      C3867   1.411       .  A
C3866      C3871   1.452       .  S
C3867      C3868   1.413       .  A
C3867      C3874   1.452       .  S
C3868      C3869   1.412       .  A
C3869      C3870   1.412       .  A
C3869      C3872   1.452       .  S
C3870      C3873   1.452       .  S
C3871      N3878   1.157       .  T
C3872      N3877   1.157       .  T
C3873      N3875   1.158       .  T
C3874      N3876   1.157       .  T
C3879      C3880   1.414       .  A
C3879      C3884   1.413       .  A
C3880      C3881   1.414       .  A
C3880      C3885   1.451       .  S
C3881      C3882   1.414       .  A
C3881      C3888   1.451       .  S
C3882      C3883   1.411       .  A
C3883      C3884   1.410       .  A
C3883      C3886   1.451       .  S
C3884      C3887   1.448       .  S
C3885      N3892   1.157       .  T
C3886      N3891   1.157       .  T
C3887      N3889   1.156       .  T
C3888      N3890   1.157       .  T
C3893      C3894   1.414       .  A
C3894      C3895   1.415       .  A
C3894      C3899   1.451       .  S
C3895      C3896   1.414       .  A
C3895      C3902   1.451       .  S
C3897      C3898   1.413       .  A
C3897      C3900   1.452       .  S
C3898      C3901   1.452       .  S
C3899      N3906   1.158       .  T
C3900      N3905   1.157       .  T
C3901      N3903   1.157       .  T
C3902      N3904   1.157       .  T
C3907      C3908   1.415       .  A
C3908      C3909   1.414       .  A
C3908      C3913   1.451       .  S
C3909      C3910   1.414       .  A
C3909      C3916   1.451       .  S
C3911      C3912   1.414       .  A
C3911      C3914   1.451       .  S
C3912      C3915   1.452       .  S
C3913      N3920   1.157       .  T
C3914      N3919   1.157       .  T
C3915      N3917   1.157       .  T
C3916      N3918   1.157       .  T
C3921      C3922   1.416       .  A
C3921      C3926   1.415       .  A
C3922      C3923   1.414       .  A
C3922      C3927   1.452       .  S
C3923      C3924   1.416       .  A
C3923      C3930   1.452       .  S
C3924      C3925   1.415       .  A
C3925      C3926   1.416       .  A
C3925      C3928   1.451       .  S
C3926      C3929   1.451       .  S
C3927      N3934   1.158       .  T
C3928      N3933   1.157       .  T
C3929      N3931   1.157       .  T
C3930      N3932   1.158       .  T
C3935      C3936   1.414       .  A
C3935      C3940   1.415       .  A
C3936      C3937   1.412       .  A
C3936      C3941   1.452       .  S
C3937      C3938   1.414       .  A
C3937      C3944   1.452       .  S
C3938      C3939   1.414       .  A
C3939      C3940   1.411       .  A
C3939      C3942   1.452       .  S
C3940      C3943   1.452       .  S
C3941      N3948   1.158       .  T
C3942      N3947   1.158       .  T
C3943      N3945   1.157       .  T
C3944      N3946   1.157       .  T
C3949      C3950   1.415       .  A
C3950      C3951   1.414       .  A
C3950      C3955   1.452       .  S
C3951      C3952   1.416       .  A
C3951      C3958   1.452       .  S
C3953      C3954   1.414       .  A
C3953      C3956   1.451       .  S
C3954      C3957   1.451       .  S
C3955      N3962   1.157       .  T
C3956      N3961   1.157       .  T
C3957      N3959   1.157       .  T
C3958      N3960   1.157       .  T
C3963      C3968   1.413       .  A
C3964      C3965   1.414       .  A
C3964      C3969   1.451       .  S
C3965      C3972   1.451       .  S
C3966      C3967   1.413       .  A
C3967      C3968   1.410       .  A
C3967      C3970   1.449       .  S
C3968      C3971   1.452       .  S
C3969      N3976   1.157       .  T
C3970      N3975   1.156       .  T
C3971      N3973   1.157       .  T
C3972      N3974   1.157       .  T
C3977      C3978   1.421   1_556  A
C3977      C3982   1.422   1_556  A
C3978      C3979   1.414       .  A
C3978      C3983   1.454   1_554  S
C3979      C3980   1.421       .  A
C3979      C3986   1.454       .  S
C3980      C3981   1.420       .  A
C3981      C3982   1.422       .  A
C3981      C3984   1.451       .  S
C3982      C3985   1.451   1_554  S
C3983      N3990   1.158       .  T
C3984      N3989   1.158       .  T
C3985      N3987   1.157       .  T
C3986      N3988   1.158       .  T
C3991      C3992   1.414       .  A
C3992      C3993   1.413       .  A
C3992      C3997   1.452       .  S
C3993      C3994   1.415   1_554  A
C3993      C4000   1.452   1_554  S
C3995      C3996   1.416       .  A
C3995      C3998   1.450   1_554  S
C3996      C3999   1.451       .  S
C3997      N4004   1.157       .  T
C3998      N4003   1.157       .  T
C3999      N4001   1.157       .  T
C4000      N4002   1.157       .  T
C4005      C4006   1.415       .  A
C4005      C4010   1.414       .  A
C4006      C4007   1.413       .  A
C4006      C4011   1.451       .  S
C4007      C4008   1.413       .  A
C4007      C4014   1.452       .  S
C4008      C4009   1.414       .  A
C4009      C4010   1.413       .  A
C4009      C4012   1.452       .  S
C4010      C4013   1.451       .  S
C4011      N4018   1.157       .  T
C4012      N4017   1.157       .  T
C4013      N4015   1.157       .  T
C4014      N4016   1.157       .  T
C4019      C4020   1.414       .  A
C4019      C4024   1.414       .  A
C4020      C4021   1.413       .  A
C4020      C4025   1.451       .  S
C4021      C4022   1.413       .  A
C4021      C4028   1.451       .  S
C4022      C4023   1.414       .  A
C4023      C4024   1.415       .  A
C4023      C4026   1.451       .  S
C4024      C4027   1.451       .  S
C4025      N4032   1.157       .  T
C4026      N4031   1.157       .  T
C4027      N4029   1.157       .  T
C4028      N4030   1.157       .  T
C4033      C4034   1.413   1_655  A
C4034      C4035   1.417       .  A
C4034      C4039   1.451       .  S
C4035      C4036   1.416   1_454  A
C4035      C4042   1.449   1_554  S
C4037      C4038   1.415       .  A
C4037      C4040   1.453   1_554  S
C4038      C4041   1.453       .  S
C4039      N4046   1.157       .  T
C4040      N4045   1.158       .  T
C4041      N4043   1.158       .  T
C4042      N4044   1.157       .  T
C4047      C4048   1.415       .  A
C4048      C4049   1.413       .  A
C4048      C4053   1.452       .  S
C4049      C4050   1.414       .  A
C4049      C4056   1.452       .  S
C4051      C4052   1.413       .  A
C4051      C4054   1.451       .  S
C4052      C4055   1.452       .  S
C4053      N4060   1.157       .  T
C4054      N4059   1.157   1_565  T
C4055      N4057   1.157   1_565  T
C4056      N4058   1.157       .  T
C4061      C4066   1.414       .  A
C4062      C4063   1.413       .  A
C4062      C4067   1.452       .  S
C4063      C4070   1.452       .  S
C4064      C4065   1.415       .  A
C4065      C4066   1.414       .  A
C4065      C4068   1.451       .  S
C4066      C4069   1.451       .  S
C4067      N4074   1.157       .  T
C4068      N4073   1.157       .  T
C4069      N4071   1.157       .  T
C4070      N4072   1.157       .  T
C4075      C4076   1.415   1_655  A
C4076      C4077   1.414       .  A
C4076      C4081   1.452       .  S
C4077      C4078   1.415   1_454  A
C4077      C4084   1.452   1_554  S
C4079      C4080   1.417       .  A
C4079      C4082   1.451   1_554  S
C4080      C4083   1.450       .  S
C4081      N4088   1.157       .  T
C4082      N4087   1.157       .  T
C4083      N4085   1.158       .  T
C4084      N4086   1.157       .  T
C4089      C4090   1.415       .  A
C4089      C4094   1.415       .  A
C4090      C4091   1.416       .  A
C4090      C4095   1.451       .  S
C4091      C4092   1.415       .  A
C4091      C4098   1.451       .  S
C4092      C4093   1.415       .  A
C4093      C4094   1.418       .  A
C4093      C4096   1.450       .  S
C4094      C4097   1.450       .  S
C4095      N4102   1.157       .  T
C4096      N4101   1.157       .  T
C4097      N4099   1.157       .  T
C4098      N4100   1.158       .  T
C4103      C4104   1.415       .  A
C4103      C4108   1.413       .  A
C4104      C4105   1.414       .  A
C4104      C4109   1.451       .  S
C4105      C4106   1.414       .  A
C4105      C4112   1.451       .  S
C4106      C4107   1.413       .  A
C4107      C4108   1.412       .  A
C4107      C4110   1.450       .  S
C4108      C4111   1.448       .  S
C4109      N4116   1.157       .  T
C4110      N4115   1.157       .  T
C4111      N4113   1.156       .  T
C4112      N4114   1.157       .  T
C4117      C4118   1.417       .  A
C4117      C4122   1.417       .  A
C4118      C4119   1.413       .  A
C4118      C4123   1.453       .  S
C4119      C4120   1.417       .  A
C4119      C4126   1.453       .  S
C4120      C4121   1.415       .  A
C4121      C4122   1.414       .  A
C4121      C4124   1.452       .  S
C4122      C4125   1.452       .  S
C4123      N4130   1.157       .  T
C4124      N4129   1.157       .  T
C4125      N4127   1.158       .  T
C4126      N4128   1.158       .  T
C4131      C4136   1.415       .  A
C4132      C4133   1.418       .  A
C4132      C4137   1.449       .  S
C4133      C4134   1.417       .  A
C4133      C4140   1.450       .  S
C4135      C4136   1.415       .  A
C4135      C4138   1.451       .  S
C4136      C4139   1.452       .  S
C4137      N4144   1.157       .  T
C4138      N4143   1.157       .  T
C4139      N4141   1.157       .  T
C4140      N4142   1.157       .  T
C4145      C4146   1.415       .  A
C4146      C4147   1.417       .  A
C4146      C4151   1.451       .  S
C4147      C4148   1.416       .  A
C4147      C4154   1.452       .  S
C4149      C4150   1.418       .  A
C4149      C4152   1.449       .  S
C4150      C4153   1.449       .  S
C4151      N4158   1.157       .  T
C4152      N4157   1.157       .  T
C4153      N4155   1.157       .  T
C4154      N4156   1.157       .  T
C4159      C4164   1.414       .  A
C4160      C4161   1.415       .  A
C4160      C4165   1.451       .  S
C4161      C4168   1.452       .  S
C4162      C4163   1.414       .  A
C4163      C4164   1.414       .  A
C4163      C4166   1.451       .  S
C4164      C4167   1.451       .  S
C4165      N4172   1.157       .  T
C4166      N4171   1.157       .  T
C4167      N4169   1.157       .  T
C4168      N4170   1.157       .  T
C4173      C4174   1.413       .  A
C4174      C4175   1.412       .  A
C4174      C4179   1.451       .  S
C4175      C4176   1.413       .  A
C4175      C4182   1.451       .  S
C4177      C4178   1.415       .  A
C4177      C4180   1.451       .  S
C4178      C4181   1.451       .  S
C4179      N4186   1.157       .  T
C4180      N4185   1.157       .  T
C4181      N4183   1.157       .  T
C4182      N4184   1.157       .  T
C4188      C4189   1.416       .  A
C4188      C4193   1.452       .  S
C4189      C4196   1.452       .  S
C4191      C4192   1.420       .  A
C4191      C4194   1.448       .  S
C4192      C4195   1.448       .  S
C4193      N4200   1.157   1_455  T
C4194      N4199   1.156       .  T
C4195      N4197   1.157       .  T
C4196      N4198   1.157       .  T
C4201      C4202   1.424       .  A
C4201      C4206   1.427       .  A
C4202      C4203   1.417       .  A
C4202      C4207   1.451       .  S
C4203      C4204   1.412       .  A
C4203      C4210   1.452       .  S
C4204      C4205   1.408       .  A
C4205      C4206   1.418       .  A
C4205      C4208   1.452       .  S
C4206      C4209   1.450       .  S
C4207      N4214   1.158       .  T
C4208      N4213   1.157       .  T
C4209      N4211   1.158       .  T
C4210      N4212   1.157       .  T
C4215      C4216   1.416       .  A
C4215      C4220   1.414       .  A
C4216      C4217   1.416       .  A
C4216      C4221   1.451       .  S
C4217      C4218   1.416       .  A
C4217      C4224   1.452       .  S
C4218      C4219   1.415       .  A
C4219      C4220   1.413       .  A
C4219      C4222   1.448       .  S
C4220      C4223   1.452       .  S
C4221      N4228   1.157       .  T
C4222      N4227   1.156       .  T
C4223      N4225   1.157       .  T
C4224      N4226   1.158       .  T
C4229      C4230   1.412       .  A
C4229      C4234   1.413       .  A
C4230      C4231   1.416       .  A
C4230      C4235   1.451       .  S
C4231      C4232   1.414       .  A
C4231      C4238   1.449       .  S
C4232      C4233   1.413       .  A
C4233      C4234   1.413       .  A
C4233      C4236   1.451       .  S
C4234      C4237   1.451       .  S
C4235      N4242   1.157       .  T
C4236      N4241   1.157       .  T
C4237      N4239   1.157       .  T
C4238      N4240   1.157       .  T
C4243      C4244   1.418       .  A
C4244      C4245   1.417       .  A
C4244      C4249   1.451       .  S
C4245      C4246   1.415       .  A
C4245      C4252   1.451       .  S
C4247      C4248   1.415       .  A
C4247      C4250   1.452       .  S
C4248      C4251   1.451       .  S
C4249      N4256   1.157       .  T
C4250      N4255   1.157       .  T
C4251      N4253   1.157       .  T
C4252      N4254   1.157       .  T
C4257      C4258   1.421   1_455  A
C4258      C4259   1.418       .  A
C4258      C4263   1.451       .  S
C4259      C4260   1.413   1_655  A
C4259      C4266   1.451       .  S
C4261      C4262   1.418       .  A
C4261      C4264   1.452       .  S
C4262      C4265   1.451       .  S
C4263      N4270   1.157       .  T
C4264      N4269   1.157       .  T
C4265      N4267   1.157       .  T
C4266      N4268   1.157       .  T
C4271      C4276   1.413       .  A
C4272      C4273   1.413       .  A
C4272      C4277   1.452       .  S
C4273      C4280   1.451       .  S
C4274      C4275   1.414       .  A
C4275      C4276   1.412       .  A
C4275      C4278   1.452       .  S
C4276      C4279   1.451       .  S
C4277      N4284   1.157       .  T
C4278      N4283   1.157   1_455  T
C4279      N4281   1.157   1_455  T
C4280      N4282   1.158       .  T
C4285      C4286   1.414       .  A
C4286      C4287   1.416       .  A
C4286      C4291   1.451   1_455  S
C4287      C4288   1.415       .  A
C4287      C4294   1.451   1_455  S
C4289      C4290   1.415       .  A
C4289      C4292   1.452       .  S
C4290      C4293   1.452       .  S
C4291      N4298   1.157       .  T
C4292      N4297   1.157       .  T
C4293      N4295   1.158       .  T
C4294      N4296   1.157       .  T
C4300      C4301   1.421       .  A
C4300      C4305   1.450       .  S
C4301      C4308   1.451       .  S
C4303      C4304   1.418       .  A
C4303      C4306   1.452       .  S
C4304      C4307   1.451   1_455  S
C4305      N4312   1.158       .  T
C4306      N4311   1.157   1_455  T
C4307      N4309   1.158       .  T
C4308      N4310   1.157       .  T
C4313      C4314   1.420       .  A
C4313      C4318   1.419       .  A
C4314      C4315   1.416       .  A
C4314      C4319   1.452       .  S
C4315      C4316   1.419       .  A
C4315      C4322   1.452       .  S
C4316      C4317   1.418       .  A
C4317      C4318   1.413       .  A
C4317      C4320   1.453       .  S
C4318      C4321   1.453       .  S
C4319      N4326   1.158       .  T
C4320      N4325   1.158       .  T
C4321      N4323   1.158       .  T
C4322      N4324   1.158       .  T
C4327      C4328   1.413       .  A
C4327      C4332   1.412       .  A
C4328      C4329   1.411       .  A
C4328      C4333   1.451       .  S
C4329      C4330   1.414       .  A
C4329      C4336   1.452       .  S
C4330      C4331   1.413       .  A
C4331      C4332   1.408       .  A
C4331      C4334   1.452       .  S
C4332      C4335   1.453       .  S
C4333      N4340   1.158       .  T
C4334      N4339   1.158       .  T
C4335      N4337   1.157       .  T
C4336      N4338   1.157       .  T
C4341      C4342   1.414       .  A
C4342      C4343   1.413       .  A
C4342      C4347   1.451       .  S
C4343      C4344   1.413       .  A
C4343      C4350   1.451       .  S
C4345      C4346   1.414       .  A
C4345      C4348   1.451       .  S
C4346      C4349   1.451       .  S
C4347      N4354   1.157       .  T
C4348      N4353   1.157       .  T
C4349      N4351   1.157       .  T
C4350      N4352   1.157       .  T
C4355      C4356   1.415       .  A
C4356      C4357   1.414       .  A
C4356      C4361   1.452       .  S
C4357      C4358   1.415       .  A
C4357      C4364   1.451       .  S
C4359      C4360   1.412       .  A
C4359      C4362   1.452       .  S
C4360      C4363   1.452       .  S
C4361      N4368   1.157       .  T
C4362      N4367   1.157       .  T
C4363      N4365   1.158       .  T
C4364      N4366   1.158       .  T
C4369      C4370   1.421       .  A
C4369      C4374   1.419       .  A
C4370      C4371   1.416       .  A
C4370      C4375   1.451       .  S
C4371      C4372   1.411       .  A
C4371      C4378   1.450       .  S
C4372      C4373   1.414       .  A
C4373      C4374   1.416       .  A
C4373      C4376   1.452       .  S
C4374      C4377   1.451       .  S
C4375      N4382   1.157       .  T
C4376      N4381   1.157       .  T
C4377      N4379   1.158       .  T
C4378      N4380   1.157       .  T
C4383      C4384   1.414       .  A
C4383      C4388   1.413       .  A
C4384      C4385   1.412       .  A
C4384      C4389   1.452       .  S
C4385      C4386   1.413       .  A
C4385      C4392   1.452       .  S
C4386      C4387   1.414       .  A
C4387      C4388   1.412       .  A
C4387      C4390   1.452       .  S
C4388      C4391   1.452       .  S
C4389      N4396   1.158       .  T
C4390      N4395   1.157       .  T
C4391      N4393   1.157       .  T
C4392      N4394   1.157       .  T
C4397      C4398   1.416       .  A
C4397      C4402   1.415       .  A
C4398      C4399   1.415       .  A
C4398      C4403   1.452       .  S
C4399      C4400   1.417       .  A
C4399      C4406   1.452       .  S
C4400      C4401   1.416       .  A
C4401      C4402   1.414       .  A
C4401      C4404   1.451       .  S
C4402      C4405   1.452       .  S
C4403      N4410   1.158       .  T
C4404      N4409   1.157       .  T
C4405      N4407   1.157       .  T
C4406      N4408   1.157       .  T
C4411      C4416   1.420       .  A
C4412      C4413   1.416       .  A
C4412      C4417   1.451       .  S
C4413      C4414   1.416       .  A
C4413      C4420   1.452       .  S
C4415      C4416   1.418       .  A
C4415      C4418   1.452       .  S
C4416      C4419   1.451       .  S
C4417      N4424   1.157       .  T
C4418      N4423   1.157       .  T
C4419      N4421   1.157       .  T
C4420      N4422   1.157       .  T
C4425      C4426   1.414   1_455  A
C4426      C4427   1.416       .  A
C4426      C4431   1.451       .  S
C4427      C4428   1.418   1_655  A
C4427      C4434   1.450       .  S
C4429      C4430   1.416       .  A
C4429      C4432   1.452       .  S
C4430      C4433   1.452       .  S
C4431      N4438   1.157       .  T
C4432      N4437   1.158       .  T
C4433      N4435   1.157       .  T
C4434      N4436   1.157       .  T
C4439      C4440   1.414       .  A
C4440      C4441   1.413       .  A
C4440      C4445   1.452   1_455  S
C4441      C4442   1.415       .  A
C4441      C4448   1.451   1_455  S
C4443      C4444   1.414       .  A
C4443      C4446   1.452       .  S
C4444      C4447   1.452       .  S
C4445      N4452   1.157       .  T
C4446      N4451   1.157       .  T
C4447      N4449   1.158       .  T
C4448      N4450   1.158       .  T
C4453      C4454   1.413       .  A
C4454      C4455   1.412       .  A
C4454      C4459   1.450       .  S
C4455      C4456   1.413       .  A
C4455      C4462   1.451       .  S
C4457      C4458   1.417       .  A
C4457      C4460   1.451       .  S
C4458      C4461   1.450       .  S
C4459      N4466   1.157   1_455  T
C4460      N4465   1.157       .  T
C4461      N4463   1.157       .  T
C4462      N4464   1.157   1_455  T
C4468      C4469   1.418       .  A
C4468      C4473   1.451       .  S
C4469      C4476   1.451       .  S
C4471      C4472   1.416       .  A
C4471      C4474   1.452       .  S
C4472      C4475   1.452       .  S
C4473      N4480   1.157       .  T
C4474      N4479   1.157       .  T
C4475      N4477   1.158       .  T
C4476      N4478   1.157       .  T
