geometry optimzed in LAMMPS
_audit_creation_date              2020-11-30 
_audit_creation_method            'lammps2cif' 
_symmetry_space_group_name_H-M    'P1' 
_symmetry_Int_Tables_number       1 
_symmetry_cell_setting            triclinic 
loop_ 
_symmetry_equiv_pos_as_xyz 
  x,y,z 
_cell_length_a                    13.949401322830127 
_cell_length_b                    27.51723679295188 
_cell_length_c                    23.973231639179748 
_cell_angle_alpha                 89.88500743244583 
_cell_angle_beta                  90.02785431704895 
_cell_angle_gamma                 89.80854696783311 
loop_ 
_atom_site_label 
_atom_site_type_symbol 
_atom_site_fract_x 
_atom_site_fract_y 
_atom_site_fract_z 
_atom_site_charge 
O1          O  0.85976400  0.28743432  0.48186073    -0.51740
C2          C  0.25920754  0.22985688  0.38552748     0.80890
O3          O  0.57139542  0.31362688  0.38079122    -0.52900
C4          C  0.93466262  0.28833903  0.51131344     0.80860
C5          C  0.50470915  0.15693433  0.40891165     0.83260
Cd6        Cd  0.94317089  0.25594663  0.39914143     1.37460
O7          O  0.27694848  0.27419996  0.39439536    -0.51730
O8          O  0.97299940  0.18133163  0.44945149    -0.50540
C9          C  0.01722430  0.34034914  0.35149182     0.83220
O10         O  0.01694067  0.17920398  0.36286375    -0.52920
O11         O  0.32018259  0.20490638  0.35893948    -0.51370
O12         O  0.01289507  0.27681945  0.48822288    -0.51360
O13         O  0.44130659  0.32181046  0.33223060    -0.50530
O14         O  0.02667225  0.22170448  0.64850893    -0.51740
C15         C  0.18400499  0.20742104  0.53100507     0.80890
O16         O  0.26709667  0.31550476  0.67987445    -0.52900
C17         C  0.00941748  0.26619184  0.65713035     0.80860
C18         C  0.26663071  0.15436724  0.69084748     0.83260
Cd19       Cd  0.19291250  0.23919599  0.64340885     1.37470
O20         O  0.10933180  0.20806959  0.56063562    -0.51730
O21         O  0.19079748  0.17320993  0.71008444    -0.50540
C22         C  0.25483851  0.33787813  0.63384619     0.83220
O23         O  0.32097121  0.18087852  0.66165383    -0.52920
O24         O  0.26225274  0.21882374  0.55403484    -0.51370
O25         O  0.07055456  0.29085060  0.68372838    -0.51360
O26         O  0.22287789  0.31369505  0.59329029    -0.50530
C27         C  0.52772292  0.98492572  0.60788725     0.03590
C28         C  0.52861228  0.00970502  0.43458642     0.03590
O29         O  0.85565719  0.70838043  0.56046419    -0.51740
C30         C  0.25625843  0.76535865  0.65779480     0.80890
O31         O  0.56890208  0.68106273  0.66026886    -0.52900
C32         C  0.93013719  0.70793054  0.53066249     0.80860
C33         C  0.50184520  0.83798306  0.63369212     0.83260
Cd34       Cd  0.44000020  0.73919019  0.64321489     1.37470
O35         O  0.27411085  0.72093229  0.64916299    -0.51730
O36         O  0.96909477  0.81394508  0.59326288    -0.50540
C37         C  0.01584113  0.65447241  0.69012117     0.83220
O38         O  0.51439502  0.81550817  0.67962483    -0.52920
O39         O  0.31733398  0.79028750  0.68410819    -0.51370
O40         O  0.00851434  0.71913673  0.55363642    -0.51360
O41         O  0.44023263  0.67311326  0.70994115    -0.50530
O42         O  0.02440396  0.77501549  0.39425935    -0.51740
C43         C  0.18085997  0.78785711  0.51207766     0.80890
O44         O  0.26426702  0.67929118  0.36334394    -0.52900
C45         C  0.00601853  0.73074759  0.38534601     0.80860
C46         C  0.26626343  0.84025351  0.35250548     0.83260
Cd47       Cd  0.19024079  0.75597628  0.39972093     1.37460
O48         O  0.10611445  0.78708347  0.48248706    -0.51730
O49         O  0.19060547  0.82187902  0.33270446    -0.50540
C50         C  0.25178539  0.65685598  0.40926670     0.83220
O51         O  0.31924395  0.81351370  0.38247809    -0.52920
O52         O  0.25922040  0.77659604  0.48900276    -0.51370
O53         O  0.06689916  0.70552373  0.35902478    -0.51360
O54         O  0.21927123  0.68104318  0.44973968    -0.50530
C55         C  0.27865727  0.48491989  0.60795768     0.03590
C56         C  0.27775275  0.50969297  0.43465425     0.03590
C57         C  0.52676975  0.48864055  0.35433935     0.03590
C58         C  0.27764103  0.98849636  0.35436881     0.03590
C59         C  0.02751517  0.50617125  0.68813427     0.03590
C60         C  0.27657029  0.00602588  0.68815082     0.03590
O61         O  0.22291570  0.27407155  0.14743127    -0.51740
C62         C  0.56564726  0.28779390  0.02981742     0.80890
O63         O  0.48312192  0.17934426  0.17891561    -0.52900
C64         C  0.24093410  0.22972281  0.15667374     0.80860
C65         C  0.48246068  0.34041179  0.18990759     0.83260
Cd66       Cd  0.55701109  0.25588332  0.14235445     1.37460
O67         O  0.64047349  0.28689742  0.05935546    -0.51730
O68         O  0.55825880  0.32152418  0.20925704    -0.50540
C69         C  0.99578885  0.15695700  0.13304760     0.83220
O70         O  0.42865696  0.31409113  0.16025016    -0.52920
O71         O  0.48739403  0.27664912  0.05300894    -0.51370
O72         O  0.18001562  0.20490479  0.18332856    -0.51360
O73         O  0.52828474  0.18113289  0.09254478    -0.50530
O74         O  0.39121066  0.20755966  0.98186167    -0.51740
C75         C  0.49048694  0.26493187  0.88445069     0.80890
O76         O  0.17830882  0.18109228  0.88131401    -0.52900
C77         C  0.31650374  0.20684688  0.01146298     0.80860
C78         C  0.24544828  0.33777815  0.90901119     0.83260
Cd79       Cd  0.30700665  0.23877067  0.89904540     1.37470
O80         O  0.47315384  0.22057399  0.89371123    -0.51730
O81         O  0.27770511  0.31325967  0.94941932    -0.50540
C82         C  0.23202200  0.15431894  0.85195827     0.83220
O83         O  0.23292240  0.31568218  0.86296202    -0.52920
O84         O  0.42915738  0.28968546  0.85773633    -0.51370
O85         O  0.23808964  0.21815757  0.98836259    -0.51360
O86         O  0.30802262  0.17271348  0.83261637    -0.50530
C87         C  0.22036579  0.48488941  0.93462317     0.03590
C88         C  0.22024503  0.50991229  0.10776327     0.03590
O89         O  0.22286554  0.71980604  0.89514511    -0.51740
C90         C  0.56567496  0.70625587  0.01236915     0.80890
O91         O  0.48307922  0.81546177  0.86365425    -0.52900
C92         C  0.24105205  0.76405119  0.88574934     0.80860
C93         C  0.48189728  0.65440334  0.85241290     0.83260
Cd94       Cd  0.55695274  0.73857639  0.90000963     1.37460
O95         O  0.64060400  0.70728477  0.98298214    -0.51730
O96         O  0.55772707  0.67294593  0.83301933    -0.50540
C97         C  0.99577463  0.83771915  0.90957353     0.83220
O98         O  0.42834465  0.68096654  0.88210905    -0.52920
O99         O  0.48736932  0.71750187  0.98910519    -0.51370
O100        O  0.18009950  0.78908473  0.85909218    -0.51360
O101        O  0.52820718  0.81333972  0.95004752    -0.50530
O102        O  0.47366632  0.77325358  0.14909459    -0.51740
C103        C  0.31709660  0.78706857  0.03076275     0.80890
O104        O  0.23319998  0.67901690  0.17953129    -0.52900
C105        C  0.49090171  0.72877716  0.15803154     0.80860
C106        C  0.23283332  0.84029978  0.19028264     0.83260
Cd107      Cd  0.30757216  0.75553291  0.14334003     1.37460
O108        O  0.39169679  0.78646444  0.06051313    -0.51730
O109        O  0.30856622  0.82150594  0.20983458    -0.50540
C110        C  0.24570485  0.65681409  0.13352530     0.83220
O111        O  0.17911859  0.81382269  0.16075589    -0.52920
O112        O  0.23872955  0.77588857  0.05379163    -0.51370
O113        O  0.42963004  0.70413442  0.18463231    -0.51360
O114        O  0.27827055  0.68111285  0.09313652    -0.50530
C115        C  0.97036749  0.98487673  0.93469188     0.03590
C116        C  0.97060849  0.00994083  0.10780274     0.03590
C117        C  0.47149417  0.48873962  0.18805957     0.03590
C118        C  0.22187463  0.98865085  0.18806735     0.03590
C119        C  0.47124300  0.50613491  0.85433812     0.03590
C120        C  0.22120725  0.00602618  0.85438526     0.03590
C121        C  0.38052848  0.98572033  0.13238149    -0.10360
C122        C  0.30619165  0.01034084  0.15600787    -0.25530
H123        H  0.37828822  0.94626512  0.13139668     0.18670
H124        H  0.30754836  0.04979209  0.15618330     0.19240
C125        C  0.12808958  0.01081133  0.16570872    -0.10360
C126        C  0.06063434  0.98689892  0.13460992    -0.25530
H127        H  0.11996383  0.04949991  0.17301109     0.18670
H128        H  0.07043152  0.94833646  0.12674444     0.19370
C129        C  0.12774749  0.98390775  0.87679790    -0.10360
C130        C  0.05999967  0.00788431  0.90779165    -0.25530
H131        H  0.12014837  0.94519525  0.86965209     0.18670
H132        H  0.06927195  0.04646912  0.91551713     0.19240
C133        C  0.37988673  0.00905789  0.91010902    -0.10360
C134        C  0.30584566  0.98439673  0.88650899    -0.25530
H135        H  0.37712697  0.04851270  0.91102713     0.18670
H136        H  0.30770517  0.94494753  0.88640885     0.19240
C137        C  0.97247340  0.99397121  0.99608499    -0.07200
C138        C  0.97257486  0.00093061  0.04639025    -0.08760
C139        C  0.21742176  0.89151520  0.19365048    -0.07200
C140        C  0.21857586  0.93510771  0.18890750    -0.08760
C141        C  0.46622982  0.60327924  0.84875640    -0.07200
C142        C  0.46735499  0.55967909  0.85343614    -0.08760
C143        C  0.97580749  0.88851313  0.91676383    -0.07200
C144        C  0.97006280  0.93152518  0.92617974    -0.08760
C145        C  0.30287488  0.78734569  0.92395539    -0.07200
C146        C  0.32096301  0.79481065  0.97208650    -0.08760
C147        C  0.56908917  0.69798129  0.07095704    -0.07200
C148        C  0.55130497  0.70516983  0.11918320    -0.08760
C149        C  0.31024290  0.48689164  0.13461951    -0.10360
C150        C  0.37774494  0.51085909  0.16562902    -0.25530
H151        H  0.31999719  0.44831263  0.12685180     0.18670
H152        H  0.36968509  0.54956430  0.17282202     0.19240
C153        C  0.13012957  0.48572303  0.13234227    -0.10360
C154        C  0.05583478  0.51037975  0.15597814    -0.25530
H155        H  0.12784667  0.44626978  0.13137425     0.18670
H156        H  0.05721265  0.54982925  0.15612180     0.19240
C157        C  0.22521891  0.60617637  0.12609212    -0.07200
C158        C  0.21936383  0.56323931  0.11640385    -0.08760
C159        C  0.31004869  0.50791175  0.90777820    -0.10360
C160        C  0.37770448  0.48399485  0.87664302    -0.25530
H161        H  0.31942518  0.54646723  0.91565484     0.18670
H162        H  0.37000466  0.44530919  0.86934031     0.19240
C163        C  0.12992162  0.50911376  0.91005648    -0.10360
C164        C  0.05578684  0.48448062  0.88651562    -0.25530
H165        H  0.12725816  0.54857166  0.91094323     0.18670
H166        H  0.05754517  0.44502974  0.88644780     0.19240
C167        C  0.22237705  0.49391633  0.99603966    -0.07200
C168        C  0.22231884  0.50087944  0.04634892    -0.08760
C169        C  0.21626621  0.10317533  0.84858599    -0.07200
C170        C  0.21734852  0.05957963  0.85339494    -0.08760
C171        C  0.22559495  0.38856219  0.91640436    -0.07200
C172        C  0.22000841  0.43155139  0.92599149    -0.08760
C173        C  0.46707630  0.39160391  0.19360640    -0.07200
C174        C  0.46821964  0.43520195  0.18898023    -0.08760
C175        C  0.96973518  0.06327589  0.11642862    -0.07200
C176        C  0.97553430  0.10625435  0.12590976    -0.08760
C177        C  0.32026603  0.19885439  0.07008496    -0.07200
C178        C  0.30225506  0.20623479  0.11823844    -0.08760
C179        C  0.55137522  0.28848618  0.92297310    -0.07200
C180        C  0.56918569  0.29581783  0.97117199    -0.08760
C181        C  0.26032091  0.99256561  0.74691471    -0.07200
C182        C  0.23759696  0.99260150  0.79566834    -0.08760
C183        C  0.01095456  0.49280989  0.74690798    -0.07200
C184        C  0.48789383  0.49280256  0.79561099    -0.08760
C185        C  0.26104688  0.00188143  0.29558260    -0.07200
C186        C  0.23820822  0.00192399  0.24683118    -0.08760
C187        C  0.51037058  0.50213686  0.29557458    -0.07200
C188        C  0.48770944  0.50212000  0.24679868    -0.08760
C189        C  0.36813946  0.48551819  0.41007779    -0.10360
C190        C  0.44211939  0.51020407  0.38637448    -0.25530
H191        H  0.37092584  0.44606004  0.41112943     0.18670
H192        H  0.44024391  0.54965498  0.38615583     0.19240
C193        C  0.18795573  0.48672273  0.40791565    -0.10360
C194        C  0.12025344  0.51071803  0.37673916    -0.25530
H195        H  0.17858505  0.44814706  0.41584861     0.18670
H196        H  0.12793837  0.54942241  0.36938473     0.19240
C197        C  0.36883667  0.50917262  0.63233028    -0.10360
C198        C  0.44328726  0.48453977  0.65600537    -0.25530
H199        H  0.37099189  0.54862745  0.63124015     0.18670
H200        H  0.44204873  0.44509157  0.65626155     0.19240
C201        C  0.18869241  0.50794861  0.63470766    -0.10360
C202        C  0.12136727  0.48403388  0.66597107    -0.25530
H203        H  0.17877365  0.54649310  0.62661280     0.18670
H204        H  0.12958688  0.44535493  0.67347694     0.19240
C205        C  0.27632324  0.49381512  0.54647648    -0.07200
C206        C  0.27600184  0.50063230  0.49610835    -0.08760
C207        C  0.28231780  0.89136641  0.34895543    -0.07200
C208        C  0.28146384  0.93495240  0.35363663    -0.08760
C209        C  0.27800523  0.56304432  0.42593128    -0.07200
C210        C  0.27205944  0.60607030  0.41645418    -0.08760
C211        C  0.03167464  0.60328509  0.69354768    -0.07200
C212        C  0.03078379  0.55970627  0.68885053    -0.08760
C213        C  0.94418263  0.70768708  0.42382052    -0.07200
C214        C  0.92613515  0.70028362  0.47199796    -0.08760
C215        C  0.19521600  0.78866910  0.61890161    -0.07200
C216        C  0.17721692  0.79590045  0.57066609    -0.08760
C217        C  0.11911565  0.98547963  0.41022470    -0.10360
C218        C  0.19309632  0.01012184  0.38642898    -0.25530
H219        H  0.12188632  0.94602907  0.41139935     0.18670
H220        H  0.19125097  0.04956626  0.38607883     0.19240
C221        C  0.43896522  0.98668433  0.40776003    -0.10360
C222        C  0.37118280  0.01063865  0.37662403    -0.25530
H223        H  0.42967023  0.94811124  0.41570838     0.18670
H224        H  0.37879665  0.04934635  0.36928125     0.19240
C225        C  0.11778366  0.00912391  0.63247658    -0.10360
C226        C  0.19220379  0.98444948  0.65609518    -0.25530
H227        H  0.11998351  0.04858484  0.63147020     0.18670
H228        H  0.19091040  0.94499564  0.65625914     0.19240
C229        C  0.43761266  0.00791209  0.63453909    -0.10360
C230        C  0.37033062  0.98395291  0.66580872    -0.25530
H231        H  0.42765587  0.04646503  0.62648160     0.18670
H232        H  0.37858469  0.94527245  0.67330349     0.19240
C233        C  0.52254465  0.88863322  0.62639881    -0.07200
C234        C  0.52856950  0.93159814  0.61673400    -0.08760
C235        C  0.52593148  0.99391330  0.54641759    -0.07200
C236        C  0.52632830  0.00073800  0.49605154    -0.08760
C237        C  0.28144462  0.10309767  0.69403957    -0.07200
C238        C  0.27995032  0.05954997  0.68905862    -0.08760
C239        C  0.27459491  0.38862393  0.62660973    -0.07200
C240        C  0.27975962  0.43161175  0.61691765    -0.08760
C241        C  0.03073421  0.43511036  0.35336799    -0.07200
C242        C  0.03223513  0.39156002  0.34831098    -0.08760
C243        C  0.52911502  0.06303508  0.42573009    -0.07200
C244        C  0.52403272  0.10606905  0.41615297    -0.08760
C245        C  0.94899738  0.28975513  0.61811254    -0.07200
C246        C  0.93122581  0.29682302  0.56982120    -0.08760
C247        C  0.19806197  0.20654274  0.42417309    -0.07200
C248        C  0.18026050  0.19932499  0.47241562    -0.08760
O249        O  0.35967343  0.28741354  0.48184371    -0.51740
C250        C  0.75923655  0.22988472  0.38553691     0.80890
O251        O  0.07143939  0.31362914  0.38075584    -0.52900
C252        C  0.43455510  0.28829764  0.51131213     0.80860
C253        C  0.00470474  0.15693808  0.40892367     0.83260
Cd254      Cd  0.44312813  0.25593264  0.39913341     1.37460
O255        O  0.77699460  0.27422178  0.39443242    -0.51730
O256        O  0.47300498  0.18132528  0.44944160    -0.50540
C257        C  0.51720503  0.34034453  0.35150935     0.83220
O258        O  0.51692557  0.17920000  0.36284969    -0.52920
O259        O  0.82020533  0.20493908  0.35893801    -0.51370
O260        O  0.51279496  0.27677394  0.48823335    -0.51360
O261        O  0.94130676  0.32181800  0.33223519    -0.50530
O262        O  0.52673194  0.22167545  0.64846355    -0.51740
C263        C  0.68403772  0.20742451  0.53099143     0.80890
O264        O  0.76710079  0.31550271  0.67988563    -0.52900
C265        C  0.50942185  0.26615617  0.65709101     0.80860
C266        C  0.76667735  0.15436383  0.69084017     0.83260
Cd267      Cd  0.69296389  0.23919040  0.64339646     1.37470
O268        O  0.60937806  0.20805280  0.56063350    -0.51730
O269        O  0.69088067  0.17322505  0.71010266    -0.50540
C270        C  0.75488464  0.33787334  0.63385205     0.83220
O271        O  0.82099970  0.18085753  0.66161448    -0.52920
O272        O  0.76228754  0.21884187  0.55401056    -0.51370
O273        O  0.57054634  0.29083710  0.68367113    -0.51360
O274        O  0.72298007  0.31368570  0.59328511    -0.50530
C275        C  0.02772463  0.98492455  0.60789351     0.03590
C276        C  0.02861127  0.00970561  0.43459268     0.03590
O277        O  0.35564966  0.70838769  0.56044215    -0.51740
C278        C  0.75625203  0.76534198  0.65779225     0.80890
O279        O  0.06891069  0.68105651  0.66025018    -0.52900
C280        C  0.43014215  0.70791670  0.53065119     0.80860
C281        C  0.00186518  0.83798364  0.63371008     0.83260
Cd282      Cd  0.94001720  0.73919302  0.64322805     1.37470
O283        O  0.77413397  0.72091714  0.64917157    -0.51730
O284        O  0.46905652  0.81394683  0.59324775    -0.50540
C285        C  0.51581028  0.65446884  0.69011534     0.83220
O286        O  0.01439883  0.81551145  0.67964607    -0.52920
O287        O  0.81731672  0.79028766  0.68409286    -0.51370
O288        O  0.50851868  0.71910852  0.55363470    -0.51360
O289        O  0.94029260  0.67312748  0.70997187    -0.50530
O290        O  0.52438846  0.77499500  0.39422664    -0.51740
C291        C  0.68081264  0.78782761  0.51207870     0.80890
O292        O  0.76428030  0.67928254  0.36334728    -0.52900
C293        C  0.50602157  0.73072353  0.38532302     0.80860
C294        C  0.76626058  0.84024666  0.35251666     0.83260
Cd295      Cd  0.69022697  0.75596304  0.39971737     1.37460
O296        O  0.60607358  0.78705933  0.48248203    -0.51730
O297        O  0.69060752  0.82187293  0.33270852    -0.50540
C298        C  0.75178818  0.65684714  0.40926907     0.83220
O299        O  0.81923128  0.81350589  0.38249391    -0.52920
O300        O  0.75917811  0.77657172  0.48900706    -0.51370
O301        O  0.56691277  0.70550214  0.35900680    -0.51360
O302        O  0.71925587  0.68103257  0.44973837    -0.50530
C303        C  0.77866309  0.48491721  0.60796280     0.03590
C304        C  0.77775805  0.50968557  0.43465777     0.03590
C305        C  0.02677017  0.48864409  0.35433344     0.03590
C306        C  0.77764717  0.98848984  0.35437107     0.03590
C307        C  0.52751040  0.50616863  0.68813006     0.03590
C308        C  0.77656485  0.00602099  0.68815154     0.03590
O309        O  0.72292588  0.27406423  0.14745048    -0.51740
C310        C  0.06563264  0.28780283  0.02981209     0.80890
O311        O  0.98312608  0.17934596  0.17891185    -0.52900
C312        C  0.74093357  0.22971369  0.15668885     0.80860
C313        C  0.98245437  0.34041396  0.18990599     0.83260
Cd314      Cd  0.05700176  0.25588743  0.14234733     1.37460
O315        O  0.14045883  0.28690665  0.05935003    -0.51730
O316        O  0.05825060  0.32152430  0.20925548    -0.50540
C317        C  0.49579455  0.15695426  0.13305288     0.83220
O318        O  0.92865015  0.31409540  0.16024643    -0.52920
O319        O  0.98738018  0.27665484  0.05300282    -0.51370
O320        O  0.68001191  0.20489853  0.18334480    -0.51360
O321        O  0.02826639  0.18113728  0.09253730    -0.50530
O322        O  0.89119882  0.20755973  0.98187229    -0.51740
C323        C  0.99047956  0.26493294  0.88445076     0.80890
O324        O  0.67830529  0.18109162  0.88130412    -0.52900
C325        C  0.81648620  0.20683892  0.01146849     0.80860
C326        C  0.74544998  0.33777559  0.90901607     0.83260
Cd327      Cd  0.80700422  0.23876659  0.89905129     1.37470
O328        O  0.97315328  0.22057571  0.89372027    -0.51730
O329        O  0.77771244  0.31325846  0.94942389    -0.50540
C330        C  0.73202944  0.15431490  0.85195896     0.83220
O331        O  0.73291786  0.31567785  0.86296864    -0.52920
O332        O  0.92914604  0.28968026  0.85773181    -0.51370
O333        O  0.73807324  0.21814412  0.98836335    -0.51360
O334        O  0.80804255  0.17270553  0.83262912    -0.50530
C335        C  0.72036349  0.48488772  0.93462282     0.03590
C336        C  0.72024127  0.50991228  0.10776217     0.03590
O337        O  0.72287324  0.71981158  0.89514665    -0.51740
C338        C  0.06566078  0.70625109  0.01236570     0.80890
O339        O  0.98307709  0.81546116  0.86365201    -0.52900
C340        C  0.74105599  0.76405753  0.88575325     0.80860
C341        C  0.98189133  0.65440273  0.85241001     0.83260
Cd342      Cd  0.05694654  0.73857452  0.90000685     1.37460
O343        O  0.14059153  0.70728165  0.98298029    -0.51730
O344        O  0.05772372  0.67294396  0.83301826    -0.50540
C345        C  0.49577161  0.83771944  0.90957645     0.83220
O346        O  0.92833571  0.68096744  0.88210265    -0.52920
O347        O  0.98735634  0.71749767  0.98910071    -0.51370
O348        O  0.68010152  0.78909072  0.85909717    -0.51360
O349        O  0.02821183  0.81333933  0.95004409    -0.50530
O350        O  0.97367855  0.77324808  0.14910241    -0.51740
C351        C  0.81710462  0.78707088  0.03076744     0.80890
O352        O  0.73320286  0.67901576  0.17953113    -0.52900
C353        C  0.99090627  0.72877033  0.15803569     0.80860
C354        C  0.73284388  0.84029702  0.19028596     0.83260
Cd355      Cd  0.80758300  0.75553082  0.14334351     1.37460
O356        O  0.89170674  0.78646302  0.06051613    -0.51730
O357        O  0.80858178  0.82150586  0.20983469    -0.50540
C358        C  0.74571025  0.65681315  0.13352523     0.83220
O359        O  0.67912593  0.81381727  0.16076431    -0.52920
O360        O  0.73873802  0.77589197  0.05379735    -0.51370
O361        O  0.92963361  0.70412962  0.18463823    -0.51360
O362        O  0.77828339  0.68111140  0.09313803    -0.50530
C363        C  0.47036588  0.98487675  0.93469454     0.03590
C364        C  0.47061035  0.00993912  0.10780577     0.03590
C365        C  0.97149282  0.48874203  0.18805605     0.03590
C366        C  0.72187822  0.98864772  0.18806860     0.03590
C367        C  0.97124261  0.50613466  0.85434097     0.03590
C368        C  0.72120492  0.00602281  0.85438577     0.03590
C369        C  0.88052812  0.98572084  0.13237880    -0.10360
C370        C  0.80619315  0.01033987  0.15600897    -0.25530
H371        H  0.87828812  0.94626567  0.13139160     0.18670
H372        H  0.80754992  0.04979111  0.15618739     0.19240
C373        C  0.62809136  0.01080817  0.16571229    -0.10360
C374        C  0.56063588  0.98689643  0.13461280    -0.25530
H375        H  0.61996502  0.04949647  0.17301634     0.18670
H376        H  0.57043315  0.94833416  0.12674610     0.19370
C377        C  0.62774602  0.98390524  0.87680071    -0.10360
C378        C  0.55999910  0.00788297  0.90779397    -0.25530
H379        H  0.62014622  0.94519258  0.86965633     0.18670
H380        H  0.56927253  0.04646787  0.91551836     0.19240
C381        C  0.87988710  0.00905654  0.91010648    -0.10360
C382        C  0.80584516  0.98439432  0.88650874    -0.25530
H383        H  0.87712653  0.04851135  0.91102342     0.18670
H384        H  0.80770513  0.94494512  0.88641023     0.19240
C385        C  0.47247300  0.99397097  0.99608771    -0.07200
C386        C  0.47257594  0.00092955  0.04639313    -0.08760
C387        C  0.71742935  0.89151227  0.19365099    -0.07200
C388        C  0.71858124  0.93510465  0.18890658    -0.08760
C389        C  0.96622449  0.60327856  0.84875623    -0.07200
C390        C  0.96735201  0.55967866  0.85343810    -0.08760
C391        C  0.47580224  0.88851315  0.91676672    -0.07200
C392        C  0.47005826  0.93152522  0.92618252    -0.08760
C393        C  0.80287712  0.78735194  0.92396044    -0.07200
C394        C  0.82096771  0.79481554  0.97209155    -0.08760
C395        C  0.06907260  0.69797411  0.07095324    -0.07200
C396        C  0.05129433  0.70516143  0.11918042    -0.08760
C397        C  0.81024023  0.48689228  0.13461763    -0.10360
C398        C  0.87774447  0.51086091  0.16562410    -0.25530
H399        H  0.81999330  0.44831286  0.12685207     0.18670
H400        H  0.86968628  0.54956656  0.17281454     0.19240
C401        C  0.63012731  0.48572259  0.13234235    -0.10360
C402        C  0.55583504  0.51037861  0.15598177    -0.25530
H403        H  0.62784367  0.44626940  0.13137228     0.18670
H404        H  0.55721398  0.54982809  0.15612807     0.19240
C405        C  0.72521823  0.60617625  0.12609052    -0.07200
C406        C  0.71935957  0.56323938  0.11640207    -0.08760
C407        C  0.81004683  0.50791030  0.90777895    -0.10360
C408        C  0.87770411  0.48399374  0.87664469    -0.25530
H409        H  0.81942223  0.54646584  0.91565561     0.18670
H410        H  0.87000542  0.44530800  0.86934205     0.19240
C411        C  0.62992045  0.50911220  0.91005509    -0.10360
C412        C  0.55578754  0.48447964  0.88651164    -0.25530
H413        H  0.62725613  0.54857006  0.91094369     0.18670
H414        H  0.55754686  0.44502875  0.88644188     0.19240
C415        C  0.72237271  0.49391519  0.99603905    -0.07200
C416        C  0.72231388  0.50087887  0.04634810    -0.08760
C417        C  0.71626821  0.10317189  0.84858544    -0.07200
C418        C  0.71734709  0.05957620  0.85339404    -0.08760
C419        C  0.72559570  0.38855988  0.91640746    -0.07200
C420        C  0.72000700  0.43154949  0.92599211    -0.08760
C421        C  0.96707346  0.39160631  0.19360628    -0.07200
C422        C  0.96821815  0.43520431  0.18897939    -0.08760
C423        C  0.46973884  0.06327394  0.11643220    -0.07200
C424        C  0.47553804  0.10625212  0.12591428    -0.08760
C425        C  0.82024059  0.19884428  0.07009037    -0.07200
C426        C  0.80223543  0.20622317  0.11824498    -0.08760
C427        C  0.05136464  0.28849507  0.92296838    -0.07200
C428        C  0.06917189  0.29582911  0.97116712    -0.08760
C429        C  0.76031399  0.99256012  0.74691513    -0.07200
C430        C  0.73759138  0.99259666  0.79566898    -0.08760
C431        C  0.51094976  0.49280875  0.74690431    -0.07200
C432        C  0.98789658  0.49280232  0.79561426    -0.08760
C433        C  0.76105405  0.00187340  0.29558428    -0.07200
C434        C  0.73821417  0.00191812  0.24683303    -0.08760
C435        C  0.01036653  0.50214309  0.29557013    -0.07200
C436        C  0.98770580  0.50212508  0.24679432    -0.08760
C437        C  0.86814516  0.48551353  0.41007756    -0.10360
C438        C  0.94211952  0.51020262  0.38637226    -0.25530
H439        H  0.87093616  0.44605541  0.41112731     0.18670
H440        H  0.94024005  0.54965345  0.38615556     0.19240
C441        C  0.68795945  0.48671607  0.40791942    -0.10360
C442        C  0.62025493  0.51071272  0.37674546    -0.25530
H443        H  0.67858970  0.44814007  0.41585042     0.18670
H444        H  0.62794056  0.54941722  0.36939221     0.19240
C445        C  0.86883982  0.50917301  0.63233534    -0.10360
C446        C  0.94329365  0.48454184  0.65600925    -0.25530
H447        H  0.87099112  0.54862792  0.63124578     0.18670
H448        H  0.94206008  0.44509361  0.65626415     0.19240
C449        C  0.68869439  0.50794559  0.63470925    -0.10360
C450        C  0.62136281  0.48403036  0.66596757    -0.25530
H451        H  0.67877810  0.54649040  0.62661554     0.18670
H452        H  0.62957901  0.44535085  0.67347095     0.19240
C453        C  0.77633171  0.49380859  0.54648061    -0.07200
C454        C  0.77601052  0.50062368  0.49611195    -0.08760
C455        C  0.78232094  0.89135925  0.34896583    -0.07200
C456        C  0.78147011  0.93494569  0.35364274    -0.08760
C457        C  0.77800899  0.56303685  0.42593716    -0.07200
C458        C  0.77206550  0.60606251  0.41645901    -0.08760
C459        C  0.53165966  0.60328270  0.69354138    -0.07200
C460        C  0.53077847  0.55970375  0.68884496    -0.08760
C461        C  0.44420625  0.70766192  0.42380847    -0.07200
C462        C  0.42615782  0.70026366  0.47198705    -0.08760
C463        C  0.69517391  0.78863307  0.61890295    -0.07200
C464        C  0.67716093  0.79586161  0.57066861    -0.08760
C465        C  0.61911493  0.98547598  0.41022047    -0.10360
C466        C  0.69310193  0.01011648  0.38642898    -0.25530
H467        H  0.62188013  0.94602531  0.41139403     0.18670
H468        H  0.69126167  0.04956095  0.38607976     0.19240
C469        C  0.93896758  0.98668226  0.40776577    -0.10360
C470        C  0.87118706  0.01063405  0.37662625    -0.25530
H471        H  0.92967447  0.94810928  0.41571572     0.18670
H472        H  0.87880058  0.04934139  0.36928069     0.19240
C473        C  0.61778392  0.00912228  0.63247176    -0.10360
C474        C  0.69219798  0.98444610  0.65609428    -0.25530
H475        H  0.61998925  0.04858311  0.63146421     0.18670
H476        H  0.69089888  0.94499231  0.65625973     0.19240
C477        C  0.93761160  0.00790910  0.63454406    -0.10360
C478        C  0.87032575  0.98394829  0.66580971    -0.25530
H479        H  0.92765531  0.04646224  0.62648785     0.18670
H480        H  0.87857785  0.94526737  0.67330185     0.19240
C481        C  0.02255993  0.88863378  0.62641525    -0.07200
C482        C  0.02857750  0.93159778  0.61674444    -0.08760
C483        C  0.02593262  0.99391032  0.54642342    -0.07200
C484        C  0.02632915  0.00073614  0.49605750    -0.08760
C485        C  0.78146090  0.10309254  0.69403964    -0.07200
C486        C  0.77994897  0.05954489  0.68906074    -0.08760
C487        C  0.77462136  0.38862166  0.62662127    -0.07200
C488        C  0.77977126  0.43160969  0.61692758    -0.08760
C489        C  0.53072592  0.43510634  0.35337930    -0.07200
C490        C  0.53222022  0.39155537  0.34832749    -0.08760
C491        C  0.02910599  0.06303656  0.42573930    -0.07200
C492        C  0.02401875  0.10607125  0.41616548    -0.08760
C493        C  0.44890457  0.28969710  0.61810785    -0.07200
C494        C  0.43109591  0.29676695  0.56982178    -0.08760
C495        C  0.69806570  0.20656119  0.42416044    -0.07200
C496        C  0.68027047  0.19933416  0.47240164    -0.08760
loop_ 
_geom_bond_atom_site_label_1 
_geom_bond_atom_site_label_2 
_geom_bond_distance 
_geom_bond_site_symmetry_2 
_ccdc_geom_bond_type 
O1            C4   1.261       .  A
O1           Cd6   2.457       .  S
C2           O11   1.265       .  A
C2            O7   1.264       .  A
C2          C247   1.414       .  S
O3          C257   1.264       .  A
O3         Cd254   2.436       .  S
C4           O12   1.264   1_655  A
C4          C246   1.423       .  S
C5          O258   1.274       .  A
C5          O256   1.261       .  A
C5          C244   1.435       .  S
Cd6          O12   2.417   1_655  S
Cd6          O10   2.504   1_655  S
Cd6           O8   2.414       .  S
Cd6         O251   2.436   1_655  S
Cd6         O261   2.418       .  S
Cd6         O259   2.421       .  S
Cd6         O255   2.373       .  S
O7         Cd254   2.373       .  S
O8          C253   1.261   1_655  A
C9          O251   1.264       .  A
C9          O261   1.264   1_455  A
C9          C242   1.427       .  S
O10         C253   1.274       .  A
O11        Cd254   2.421       .  S
O13         C257   1.264       .  A
O13        Cd254   2.418       .  S
O14          C17   1.264       .  A
O14         Cd19   2.373       .  S
C15          O24   1.264       .  A
C15          O20   1.261       .  A
C15         C248   1.424       .  S
O16          C22   1.274       .  A
O16         Cd19   2.503       .  S
C17          O25   1.265       .  A
C17         C245   1.414   1_455  S
C18          O23   1.264       .  A
C18          O21   1.264       .  A
C18         C237   1.427       .  S
Cd19         O26   2.412       .  S
Cd19         O25   2.420       .  S
Cd19         O24   2.417       .  S
Cd19         O20   2.458       .  S
Cd19         O23   2.436       .  S
Cd19         O21   2.417       .  S
C22          O26   1.261       .  A
C22         C239   1.434       .  S
C27         C229   1.544   1_565  S
C27         C473   1.541   1_565  S
C27         C234   1.482       .  S
C27         C235   1.494       .  S
C28         C221   1.544   1_545  S
C28         C465   1.541   1_545  S
C28         C236   1.494       .  S
C28         C243   1.482       .  S
O29          C32   1.261       .  A
O29        Cd282   2.460       .  S
C30          O39   1.265       .  A
C30          O35   1.264       .  A
C30         C215   1.414       .  S
O31         C285   1.264       .  A
O31         Cd34   2.436       .  S
C32          O40   1.263   1_655  A
C32         C214   1.424       .  S
C33          O38   1.274       .  A
C33         O284   1.261       .  A
C33         C233   1.435       .  S
Cd34         O41   2.419       .  S
Cd34         O39   2.420       .  S
Cd34         O35   2.374       .  S
Cd34         O38   2.504       .  S
Cd34        O277   2.460       .  S
Cd34        O288   2.415       .  S
Cd34        O284   2.414       .  S
O36         C281   1.261   1_655  A
O36        Cd282   2.414       .  S
C37         O279   1.264       .  A
C37         O289   1.264   1_455  A
C37         C211   1.427       .  S
O40        Cd282   2.415   1_455  S
O41         C285   1.264       .  A
O42          C45   1.264       .  A
O42         Cd47   2.374       .  S
C43          O52   1.263       .  A
C43          O48   1.261       .  A
C43         C216   1.423       .  S
O44          C50   1.273       .  A
O44         Cd47   2.505       .  S
C45          O53   1.265       .  A
C45         C213   1.414   1_455  S
C46          O51   1.264       .  A
C46          O49   1.264       .  A
C46         C207   1.427       .  S
Cd47         O54   2.416       .  S
Cd47         O53   2.421       .  S
Cd47         O52   2.416       .  S
Cd47         O48   2.460       .  S
Cd47         O51   2.436       .  S
Cd47         O49   2.420       .  S
C50          O54   1.261       .  A
C50         C210   1.435       .  S
C55         C197   1.541       .  S
C55         C201   1.544       .  S
C55         C205   1.494       .  S
C55         C240   1.482       .  S
C56         C189   1.541       .  S
C56         C193   1.545       .  S
C56         C206   1.494       .  S
C56         C209   1.483       .  S
C57         C190   1.528       .  S
C57         C442   1.538       .  S
C57         C187   1.474       .  S
C57         C489   1.474       .  S
C58         C218   1.528   1_565  S
C58         C222   1.538   1_565  S
C58         C185   1.474   1_565  S
C58         C208   1.474       .  S
C59         C202   1.538       .  S
C59         C446   1.527   1_455  S
C59         C183   1.474       .  S
C59         C212   1.474       .  S
C60         C226   1.528   1_545  S
C60         C230   1.537   1_545  S
C60         C181   1.474   1_545  S
C60         C238   1.474       .  S
O61          C64   1.264       .  A
O61        Cd314   2.373       .  S
C62          O71   1.264       .  A
C62          O67   1.261       .  A
C62         C180   1.424   1_554  S
O63         C317   1.274       .  A
O63         Cd66   2.505       .  S
C64          O72   1.265       .  A
C64         C178   1.413       .  S
C65          O70   1.264       .  A
C65          O68   1.264       .  A
C65         C173   1.427       .  S
Cd66         O73   2.415       .  S
Cd66         O71   2.418       .  S
Cd66         O67   2.459       .  S
Cd66         O70   2.437       .  S
Cd66         O68   2.418       .  S
Cd66        O309   2.373       .  S
Cd66        O320   2.420       .  S
C69         O311   1.274       .  A
C69         O321   1.261   1_655  A
C69         C176   1.435       .  S
O72        Cd314   2.420       .  S
O73         C317   1.261       .  A
O74          C77   1.261   1_556  A
O74         Cd79   2.458       .  S
C75          O84   1.265       .  A
C75          O80   1.264       .  A
C75         C179   1.414       .  S
O76          C82   1.264       .  A
O76         Cd79   2.438       .  S
C77          O85   1.264   1_554  A
C77         C177   1.423       .  S
C78          O83   1.274       .  A
C78          O81   1.261       .  A
C78         C171   1.435       .  S
Cd79         O86   2.419       .  S
Cd79         O85   2.415       .  S
Cd79         O84   2.421       .  S
Cd79         O80   2.373       .  S
Cd79         O83   2.505       .  S
Cd79         O81   2.415       .  S
C82          O86   1.264       .  A
C82         C169   1.428       .  S
C87         C159   1.544       .  S
C87         C163   1.541       .  S
C87         C167   1.494       .  S
C87         C172   1.483       .  S
C88         C149   1.544       .  S
C88         C153   1.541       .  S
C88         C158   1.482       .  S
C88         C168   1.494       .  S
O89          C92   1.264       .  A
O89        Cd342   2.373       .  S
C90          O99   1.263   1_554  A
C90          O95   1.261   1_554  A
C90         C147   1.423       .  S
O91         C345   1.273       .  A
O91         Cd94   2.505       .  S
C92         O100   1.265       .  A
C92         C145   1.414       .  S
C93          O98   1.264       .  A
C93          O96   1.264       .  A
C93         C141   1.427       .  S
Cd94        O101   2.416       .  S
Cd94         O99   2.417       .  S
Cd94         O95   2.458       .  S
Cd94         O98   2.437       .  S
Cd94         O96   2.419       .  S
Cd94        O337   2.373       .  S
Cd94        O348   2.420       .  S
C97         O339   1.273       .  A
C97         O349   1.261   1_655  A
C97         C143   1.435       .  S
O100       Cd342   2.420       .  S
O101        C345   1.261       .  A
O102        C105   1.264       .  A
O102       Cd107   2.373       .  S
C103        O112   1.264       .  A
C103        O108   1.261       .  A
C103        C146   1.423   1_554  S
O104        C110   1.274       .  A
O104       Cd107   2.504       .  S
C105        O113   1.265       .  A
C105        C148   1.414       .  S
C106        O111   1.264       .  A
C106        O109   1.264       .  A
C106        C139   1.427       .  S
Cd107       O114   2.413       .  S
Cd107       O113   2.420       .  S
Cd107       O112   2.415       .  S
Cd107       O108   2.459       .  S
Cd107       O111   2.438       .  S
Cd107       O109   2.418       .  S
C110        O114   1.261       .  A
C110        C157   1.435       .  S
C115        C130   1.544   1_665  S
C115        C381   1.541   1_565  S
C115        C137   1.494       .  S
C115        C144   1.483       .  S
C116        C126   1.544   1_645  S
C116        C369   1.541   1_545  S
C116        C138   1.494       .  S
C116        C175   1.483       .  S
C117        C150   1.537       .  S
C117        C402   1.528       .  S
C117        C174   1.474       .  S
C117        C188   1.474       .  S
C118        C122   1.528   1_565  S
C118        C125   1.537   1_565  S
C118        C140   1.474       .  S
C118        C186   1.474   1_565  S
C119        C160   1.538       .  S
C119        C412   1.528       .  S
C119        C142   1.474       .  S
C119        C184   1.474       .  S
C120        C129   1.537   1_545  S
C120        C134   1.528   1_545  S
C120        C170   1.475       .  S
C120        C182   1.474   1_545  S
C121        C364   1.541   1_565  S
C121        C122   1.361   1_565  D
C121        H123   1.087       .  S
C122        H124   1.086       .  S
C125        C126   1.371   1_545  D
C125        H127   1.085       .  S
C126        H128   1.086       .  S
C129        C130   1.371   1_565  D
C129        H131   1.085       .  S
C130        H132   1.086       .  S
C133        C363   1.541   1_545  S
C133        C134   1.361   1_545  D
C133        H135   1.087       .  S
C134        H136   1.086       .  S
C137        C138   1.221   1_566  T
C139        C140   1.205       .  T
C141        C142   1.205       .  T
C143        C144   1.208       .  T
C145        C146   1.199       .  T
C147        C148   1.199       .  T
C149        C150   1.371       .  D
C149        H151   1.086       .  S
C150        H152   1.085       .  S
C153        C154   1.361       .  D
C153        H155   1.087       .  S
C154        C365   1.528   1_455  S
C154        H156   1.086       .  S
C157        C158   1.208       .  T
C159        C160   1.371       .  D
C159        H161   1.086       .  S
C160        H162   1.085       .  S
C163        C164   1.361       .  D
C163        H165   1.087       .  S
C164        C367   1.528   1_455  S
C164        H166   1.086       .  S
C167        C168   1.222   1_556  T
C169        C170   1.205       .  T
C171        C172   1.208       .  T
C173        C174   1.205       .  T
C175        C176   1.208       .  T
C177        C178   1.199       .  T
C179        C180   1.199       .  T
C181        C182   1.211       .  T
C183        C432   1.211   1_455  T
C184        C431   1.211       .  T
C185        C186   1.211       .  T
C187        C188   1.211       .  T
C189        C190   1.361       .  D
C189        H191   1.087       .  S
C190        H192   1.086       .  S
C193        C194   1.371       .  D
C193        H195   1.086       .  S
C194        C305   1.537       .  S
C194        H196   1.085       .  S
C197        C198   1.361       .  D
C197        H199   1.086       .  S
C198        C307   1.528       .  S
C198        H200   1.086       .  S
C201        C202   1.371       .  D
C201        H203   1.086       .  S
C202        H204   1.085       .  S
C205        C206   1.222       .  T
C207        C208   1.205       .  T
C209        C210   1.208       .  T
C211        C212   1.205       .  T
C213        C214   1.199       .  T
C215        C216   1.199       .  T
C217        C276   1.541   1_565  S
C217        C218   1.362   1_565  D
C217        H219   1.086       .  S
C218        H220   1.086       .  S
C221        C222   1.371   1_565  D
C221        H223   1.086       .  S
C222        H224   1.085       .  S
C225        C275   1.541   1_545  S
C225        C226   1.361   1_545  D
C225        H227   1.087       .  S
C226        H228   1.086       .  S
C229        C230   1.371   1_545  D
C229        H231   1.086       .  S
C230        H232   1.085       .  S
C233        C234   1.208       .  T
C235        C236   1.222   1_565  T
C237        C238   1.205       .  T
C239        C240   1.207       .  T
C241        C305   1.474       .  S
C241        C242   1.205       .  T
C243        C244   1.208       .  T
C245        C246   1.199       .  T
C247        C248   1.199       .  T
O249        C252   1.261       .  A
O249       Cd254   2.458       .  S
C250        O259   1.265       .  A
C250        O255   1.264       .  A
C250        C495   1.414       .  S
C252        O260   1.264       .  A
C252        C494   1.423       .  S
C253        C492   1.435       .  S
Cd254       O260   2.417       .  S
Cd254       O258   2.504       .  S
Cd254       O256   2.414       .  S
C257        C490   1.427       .  S
O262        C265   1.264       .  A
O262       Cd267   2.373       .  S
C263        O272   1.264       .  A
C263        O268   1.261       .  A
C263        C496   1.424       .  S
O264        C270   1.274       .  A
O264       Cd267   2.503       .  S
C265        O273   1.265       .  A
C265        C493   1.414       .  S
C266        O271   1.264       .  A
C266        O269   1.264       .  A
C266        C485   1.427       .  S
Cd267       O274   2.412       .  S
Cd267       O273   2.421       .  S
Cd267       O272   2.417       .  S
Cd267       O268   2.458       .  S
Cd267       O271   2.436       .  S
Cd267       O269   2.417       .  S
C270        O274   1.261       .  A
C270        C487   1.434       .  S
C275        C477   1.544   1_465  S
C275        C482   1.482       .  S
C275        C483   1.494       .  S
C276        C469   1.544   1_445  S
C276        C484   1.494       .  S
C276        C491   1.482       .  S
O277        C280   1.261       .  A
C278        O287   1.265       .  A
C278        O283   1.264       .  A
C278        C463   1.414       .  S
O279       Cd282   2.436   1_455  S
C280        O288   1.263       .  A
C280        C462   1.424       .  S
C281        O286   1.274       .  A
C281        C481   1.435       .  S
Cd282       O289   2.419       .  S
Cd282       O287   2.420       .  S
Cd282       O283   2.374       .  S
Cd282       O286   2.504   1_655  S
C285        C459   1.427       .  S
O290        C293   1.264       .  A
O290       Cd295   2.374       .  S
C291        O300   1.263       .  A
C291        O296   1.261       .  A
C291        C464   1.423       .  S
O292        C298   1.273       .  A
O292       Cd295   2.505       .  S
C293        O301   1.265       .  A
C293        C461   1.414       .  S
C294        O299   1.264       .  A
C294        O297   1.264       .  A
C294        C455   1.427       .  S
Cd295       O302   2.416       .  S
Cd295       O301   2.421       .  S
Cd295       O300   2.416       .  S
Cd295       O296   2.460       .  S
Cd295       O299   2.436       .  S
Cd295       O297   2.420       .  S
C298        O302   1.261       .  A
C298        C458   1.435       .  S
C303        C445   1.541       .  S
C303        C449   1.544       .  S
C303        C453   1.494       .  S
C303        C488   1.482       .  S
C304        C437   1.541       .  S
C304        C441   1.545       .  S
C304        C454   1.494       .  S
C304        C457   1.482       .  S
C305        C438   1.528   1_455  S
C305        C435   1.474       .  S
C306        C466   1.528   1_565  S
C306        C470   1.538   1_565  S
C306        C433   1.474   1_565  S
C306        C456   1.474       .  S
C307        C450   1.538       .  S
C307        C431   1.474       .  S
C307        C460   1.474       .  S
C308        C474   1.528   1_545  S
C308        C478   1.537   1_545  S
C308        C429   1.474   1_545  S
C308        C486   1.474       .  S
O309        C312   1.264       .  A
C310        O319   1.264   1_455  A
C310        O315   1.261       .  A
C310        C428   1.424   1_554  S
O311       Cd314   2.505   1_655  S
C312        O320   1.265       .  A
C312        C426   1.413       .  S
C313        O318   1.264       .  A
C313        O316   1.264   1_655  A
C313        C421   1.427       .  S
Cd314       O321   2.415       .  S
Cd314       O319   2.418   1_455  S
Cd314       O315   2.459       .  S
Cd314       O318   2.437   1_455  S
Cd314       O316   2.418       .  S
C317        C424   1.435       .  S
O322        C325   1.261   1_556  A
O322       Cd327   2.458       .  S
C323        O332   1.265       .  A
C323        O328   1.264       .  A
C323        C427   1.414   1_655  S
O324        C330   1.264       .  A
O324       Cd327   2.438       .  S
C325        O333   1.264   1_554  A
C325        C425   1.423       .  S
C326        O331   1.274       .  A
C326        O329   1.261       .  A
C326        C419   1.435       .  S
Cd327       O334   2.419       .  S
Cd327       O333   2.415       .  S
Cd327       O332   2.421       .  S
Cd327       O328   2.373       .  S
Cd327       O331   2.505       .  S
Cd327       O329   2.415       .  S
C330        O334   1.264       .  A
C330        C417   1.428       .  S
C335        C407   1.544       .  S
C335        C411   1.541       .  S
C335        C415   1.494       .  S
C335        C420   1.483       .  S
C336        C397   1.544       .  S
C336        C401   1.541       .  S
C336        C406   1.482       .  S
C336        C416   1.494       .  S
O337        C340   1.264       .  A
C338        O347   1.263   1_454  A
C338        O343   1.261   1_554  A
C338        C395   1.423       .  S
O339       Cd342   2.505   1_655  S
C340        O348   1.265       .  A
C340        C393   1.414       .  S
C341        O346   1.264       .  A
C341        O344   1.264   1_655  A
C341        C389   1.427       .  S
Cd342       O349   2.416       .  S
Cd342       O347   2.417   1_455  S
Cd342       O343   2.458       .  S
Cd342       O346   2.437   1_455  S
Cd342       O344   2.419       .  S
C345        C391   1.435       .  S
O350        C353   1.264       .  A
O350       Cd355   2.373       .  S
C351        O360   1.264       .  A
C351        O356   1.261       .  A
C351        C394   1.423   1_554  S
O352        C358   1.274       .  A
O352       Cd355   2.504       .  S
C353        O361   1.265       .  A
C353        C396   1.414   1_655  S
C354        O359   1.264       .  A
C354        O357   1.264       .  A
C354        C387   1.427       .  S
Cd355       O362   2.413       .  S
Cd355       O361   2.420       .  S
Cd355       O360   2.415       .  S
Cd355       O356   2.459       .  S
Cd355       O359   2.438       .  S
Cd355       O357   2.418       .  S
C358        O362   1.261       .  A
C358        C405   1.435       .  S
C363        C378   1.544   1_565  S
C363        C385   1.494       .  S
C363        C392   1.483       .  S
C364        C374   1.544   1_545  S
C364        C386   1.494       .  S
C364        C423   1.483       .  S
C365        C398   1.537       .  S
C365        C422   1.474       .  S
C365        C436   1.474       .  S
C366        C370   1.528   1_565  S
C366        C373   1.537   1_565  S
C366        C388   1.474       .  S
C366        C434   1.474   1_565  S
C367        C408   1.538       .  S
C367        C390   1.474       .  S
C367        C432   1.474       .  S
C368        C377   1.537   1_545  S
C368        C382   1.528   1_545  S
C368        C418   1.475       .  S
C368        C430   1.474   1_545  S
C369        C370   1.361   1_565  D
C369        H371   1.087       .  S
C370        H372   1.086       .  S
C373        C374   1.371   1_545  D
C373        H375   1.085       .  S
C374        H376   1.086       .  S
C377        C378   1.371   1_565  D
C377        H379   1.085       .  S
C378        H380   1.086       .  S
C381        C382   1.361   1_545  D
C381        H383   1.087       .  S
C382        H384   1.086       .  S
C385        C386   1.221   1_566  T
C387        C388   1.205       .  T
C389        C390   1.205       .  T
C391        C392   1.208       .  T
C393        C394   1.199       .  T
C395        C396   1.199       .  T
C397        C398   1.371       .  D
C397        H399   1.086       .  S
C398        H400   1.085       .  S
C401        C402   1.361       .  D
C401        H403   1.087       .  S
C402        H404   1.086       .  S
C405        C406   1.208       .  T
C407        C408   1.371       .  D
C407        H409   1.086       .  S
C408        H410   1.085       .  S
C411        C412   1.361       .  D
C411        H413   1.087       .  S
C412        H414   1.086       .  S
C415        C416   1.222   1_556  T
C417        C418   1.205       .  T
C419        C420   1.208       .  T
C421        C422   1.205       .  T
C423        C424   1.208       .  T
C425        C426   1.199       .  T
C427        C428   1.199       .  T
C429        C430   1.211       .  T
C433        C434   1.211       .  T
C435        C436   1.211   1_455  T
C437        C438   1.361       .  D
C437        H439   1.087       .  S
C438        H440   1.086       .  S
C441        C442   1.371       .  D
C441        H443   1.086       .  S
C442        H444   1.085       .  S
C445        C446   1.361       .  D
C445        H447   1.086       .  S
C446        H448   1.086       .  S
C449        C450   1.371       .  D
C449        H451   1.086       .  S
C450        H452   1.085       .  S
C453        C454   1.222       .  T
C455        C456   1.205       .  T
C457        C458   1.208       .  T
C459        C460   1.205       .  T
C461        C462   1.199       .  T
C463        C464   1.199       .  T
C465        C466   1.362   1_565  D
C465        H467   1.086       .  S
C466        H468   1.086       .  S
C469        C470   1.371   1_565  D
C469        H471   1.086       .  S
C470        H472   1.085       .  S
C473        C474   1.361   1_545  D
C473        H475   1.087       .  S
C474        H476   1.086       .  S
C477        C478   1.371   1_545  D
C477        H479   1.086       .  S
C478        H480   1.085       .  S
C481        C482   1.208       .  T
C483        C484   1.222   1_565  T
C485        C486   1.205       .  T
C487        C488   1.207       .  T
C489        C490   1.205       .  T
C491        C492   1.208       .  T
C493        C494   1.199       .  T
C495        C496   1.199       .  T
