geometry optimzed in LAMMPS
_audit_creation_date              2020-11-30 
_audit_creation_method            'lammps2cif' 
_symmetry_space_group_name_H-M    'P1' 
_symmetry_Int_Tables_number       1 
_symmetry_cell_setting            triclinic 
loop_ 
_symmetry_equiv_pos_as_xyz 
  x,y,z 
_cell_length_a                    25.56813191 
_cell_length_b                    25.44012466722412 
_cell_length_c                    26.411486476732673 
_cell_angle_alpha                 89.25236294168768 
_cell_angle_beta                  89.88345686241725 
_cell_angle_gamma                 89.05796318608482 
loop_ 
_atom_site_label 
_atom_site_type_symbol 
_atom_site_fract_x 
_atom_site_fract_y 
_atom_site_fract_z 
_atom_site_charge 
C1          C  0.85845502  0.86206511  0.86627417    -0.02900
C2          C  0.97598454  0.98175295  0.47975986     0.42100
N3          N  0.95886155  0.93300471  0.41947228     0.01000
C4          C  0.75905092  0.93270313  0.25702780    -0.06900
H5          H  0.69661306  0.91265973  0.45130436     0.06500
C6          C  0.81028754  0.73839515  0.44294008    -0.07300
Co7        Co  0.86532590  0.97042516  0.36501349     0.74200
N8          N  0.76991233  0.92664269  0.41268374    -0.26400
Co9        Co  0.77741044  0.86947292  0.35526085     0.74100
C10         C  0.75981770  0.75469719  0.46262401     0.42200
N11         N  0.93803953  0.77952289  0.41386212     0.00600
N12         N  0.78133104  0.81023207  0.40766389     0.00700
N13         N  0.81375086  0.00031138  0.26878615    -0.47300
H14         H  0.90372726  0.03515700  0.46661693     0.06400
N15         N  0.80462824  0.96402003  0.41705678     0.01000
N16         N  0.78273578  0.81154188  0.29888236     0.00700
C17         C  0.76075161  0.75273912  0.24399802     0.42300
N18         N  0.97136910  0.81847255  0.41541610    -0.25900
C19         C  0.93223645  0.01559479  0.27730169    -0.06800
N20         N  0.99398484  0.94025476  0.45448944    -0.47000
N21         N  0.74518198  0.79791669  0.26692443    -0.47200
C22         C  0.98175768  0.00197544  0.25289234     0.42100
N23         N  0.81345269  0.96782398  0.30770624     0.01000
N24         N  0.97048917  0.82928642  0.30568252    -0.25900
N25         N  0.91998138  0.96766410  0.42057680    -0.26400
N26         N  0.93695268  0.79081778  0.30221698     0.00600
H27         H  0.03281724  0.85684637  0.25787585     0.06500
H28         H  0.83452657  0.70294250  0.26372400     0.06500
N29         N  0.78141993  0.92837542  0.30219694    -0.26500
N30         N  0.82036362  0.77542928  0.40848707    -0.26100
N31         N  0.96434958  0.94405130  0.31075064     0.01000
C32         C  0.74676237  0.98339332  0.47381528     0.42400
C33         C  0.00651314  0.80821900  0.45233814    -0.07300
N34         N  0.82185018  0.77714888  0.29997927    -0.26100
H35         H  0.83362909  0.70333677  0.45056450     0.06500
N36         N  0.79211437  0.99875556  0.45232762    -0.47300
H37         H  0.03964904  0.83228605  0.46127708     0.06500
C38         C  0.98246909  0.78749968  0.23507415     0.42200
C39         C  0.92725531  0.00059710  0.45829270    -0.06800
Co40       Co  0.96754450  0.88102955  0.36292092     0.73800
N41         N  0.94928306  0.74194518  0.44807637    -0.47000
C42         C  0.78112343  0.98015252  0.23516987     0.42500
N43         N  0.99932429  0.95695394  0.27566570    -0.47000
Co44       Co  0.87989251  0.77930237  0.35629883     0.73900
C45         C  0.81166837  0.73884218  0.26689596    -0.07300
C46         C  0.73159884  0.93562417  0.44689872    -0.06900
N47         N  0.92507799  0.97796562  0.31248680    -0.26400
N48         N  0.74375071  0.79911035  0.43969185    -0.47200
H49         H  0.73098842  0.90602465  0.24141487     0.06500
C50         C  0.00135916  0.82988164  0.26526455    -0.07300
Cl51       Cl  0.87242242  0.87482194  0.36023542    -0.50300
C52         C  0.99141981  0.75785105  0.47493717     0.42200
H53         H  0.90557402  0.04812776  0.27006425     0.06400
N54         N  0.94300836  0.76431182  0.26018512    -0.47000
C55         C  0.74187542  0.47484238  0.98365698     0.42100
N56         N  0.76684608  0.41612362  0.93000632     0.01000
C57         C  0.00932520  0.28719438  0.93363758    -0.06900
H58         H  0.02814284  0.47399549  0.90739723     0.06500
C59         C  0.92710824  0.45834262  0.72830040    -0.07300
Co60       Co  0.87102674  0.37047783  0.95827358     0.74200
N61         N  0.95563734  0.43350800  0.91518503    -0.26400
Co62       Co  0.96094931  0.37619105  0.86189568     0.74100
C63         C  0.97645404  0.48465657  0.74030115     0.42200
N64         N  0.80080381  0.42099194  0.78137947     0.00600
N65         N  0.95470892  0.43072654  0.80142395     0.00700
N66         N  0.94897583  0.28729983  0.99615001    -0.47300
H67         H  0.81858059  0.46659671  0.02823391     0.06400
N68         N  0.92023796  0.43156806  0.95162397     0.01000
N69         N  0.95977308  0.31721518  0.81115089     0.00700
C70         C  0.97525245  0.24392525  0.77786869     0.42300
N71         N  0.76547064  0.41723777  0.81781308    -0.25900
C72         C  0.82585738  0.26780366  0.99159048    -0.06800
N73         N  0.72668397  0.44744517  0.94256253    -0.47000
N74         N  0.99362372  0.27791306  0.81117547    -0.47200
C75         C  0.78451056  0.23468545  0.97547502     0.42100
N76         N  0.93537235  0.31980932  0.95858667     0.01000
N77         N  0.77043279  0.30339513  0.81370387    -0.25900
N78         N  0.80653717  0.42064301  0.96123095    -0.26400
N79         N  0.80444750  0.30653310  0.77623170     0.00600
H80         H  0.69908322  0.25960682  0.82286958     0.06500
H81         H  0.90251581  0.25039175  0.72666492     0.06500
N82         N  0.97002305  0.32118625  0.92172460    -0.26500
N83         N  0.91698525  0.42607635  0.76797470    -0.26100
N84         N  0.78516771  0.30196281  0.92706081     0.01000
C85         C  0.97436637  0.48646218  0.97605684     0.42400
C86         C  0.73280747  0.45840358  0.81495332    -0.07300
N87         N  0.92120341  0.31182845  0.77854787    -0.26100
H88         H  0.90528245  0.45886362  0.69333020     0.06500
N89         N  0.93040143  0.46255825  0.98947400    -0.47300
H90         H  0.70027370  0.46650340  0.84004453     0.06500
C91         C  0.74917285  0.24838548  0.75108870     0.42200
C92         C  0.79456711  0.45672034  0.99617658    -0.06800
Co93       Co  0.77024766  0.35910714  0.87229820     0.73800
N94         N  0.79443811  0.46369563  0.75343514    -0.47000
C95         C  0.99492787  0.26462383  0.98306623     0.42500
N96         N  0.76010641  0.25795957  0.93553124    -0.47000
Co97       Co  0.86076688  0.36636838  0.77454870     0.73900
C98         C  0.92779870  0.26615408  0.75532771    -0.07300
C99         C  0.99130536  0.46852787  0.92684285    -0.06900
N100        N  0.82321122  0.30835137  0.95983205    -0.26400
N101        N  0.99113292  0.46426695  0.78607318    -0.47200
H102        H  0.04475451  0.28117539  0.91188743     0.06500
C103        C  0.73426410  0.26753717  0.80147909    -0.07300
Cl104      Cl  0.86566189  0.36823283  0.86655163    -0.50300
C105        C  0.75309455  0.48941275  0.77331023     0.42200
H106        H  0.85219369  0.26324104  0.02337528     0.06400
N107        N  0.79252654  0.27538232  0.73787197    -0.47000
C108        C  0.48323890  0.97817000  0.97783231     0.42100
N109        N  0.43208642  0.95459787  0.92133850     0.01000
C110        C  0.25992050  0.75737762  0.92057114    -0.06900
H111        H  0.46202619  0.69061399  0.90881758     0.06500
C112        C  0.46876613  0.80670497  0.74828334    -0.07300
Co113      Co  0.37213596  0.86364163  0.95724128     0.74200
N114        N  0.42082779  0.76460112  0.91970061    -0.26400
Co115      Co  0.36400732  0.77178622  0.86177954     0.74100
C116        C  0.49187817  0.75816037  0.76822459     0.42200
N117        N  0.42729819  0.93057769  0.77381836     0.00600
N118        N  0.42196772  0.77382170  0.80834808     0.00700
N119        N  0.27074432  0.81634470  0.98276517    -0.47300
H120        H  0.46562628  0.90734430  0.02935214     0.06400
N121        N  0.42469220  0.80076785  0.95464088     0.01000
N122        N  0.30857177  0.77687094  0.80230873     0.00700
C123        C  0.25490340  0.75619754  0.74219541     0.42300
N124        N  0.42853894  0.96502484  0.81046651    -0.25900
C125        C  0.28691188  0.93964812  0.00003890    -0.06800
N126        N  0.46301436  0.99290898  0.93334050    -0.47000
N127        N  0.27513991  0.74032743  0.78765191    -0.47200
C128        C  0.26640958  0.99192539  0.98621726     0.42100
N129        N  0.31151393  0.81371271  0.95271590     0.01000
N130        N  0.31609852  0.96505734  0.81875516    -0.25900
N131        N  0.43081276  0.91668490  0.95591131    -0.26400
N132        N  0.31281341  0.93081680  0.78197872     0.00600
H133        H  0.26455851  0.02540732  0.84692167     0.06500
H134        H  0.27572402  0.83078862  0.69654729     0.06500
N135        N  0.30660134  0.77942521  0.91610126    -0.26500
N136        N  0.42532833  0.81318594  0.77539119    -0.26100
N137        N  0.32054609  0.96516473  0.92894370     0.01000
C138        C  0.48367469  0.74312114  0.97615847     0.42400
C139        C  0.46367307  0.00195093  0.79863031    -0.07300
N140        N  0.31200987  0.81557431  0.76893830    -0.26100
H141        H  0.48171842  0.83197273  0.71766197     0.06500
N142        N  0.46092665  0.78929847  0.98910311    -0.47300
H143        H  0.47091550  0.03675981  0.82045563     0.06500
C144        C  0.24118072  0.97413218  0.78081474     0.42200
C145        C  0.46331478  0.92764690  0.99315591    -0.06800
Co146      Co  0.37464996  0.96335129  0.86949257     0.73800
N147        N  0.45980456  0.94257673  0.73620164    -0.47000
C148        C  0.23648631  0.78239049  0.96474936     0.42500
N149        N  0.28973247  0.00530327  0.94196860    -0.47000
Co150      Co  0.36949369  0.87282594  0.77343382     0.73900
C151        C  0.27928490  0.80655380  0.73032539    -0.07300
C152        C  0.45642012  0.72624351  0.93019479    -0.06900
N153        N  0.31992070  0.92662519  0.96248366    -0.26400
N154        N  0.46053325  0.73928125  0.80457572    -0.47200
H155        H  0.24441681  0.72756393  0.89620654     0.06500
C156        C  0.27294581  0.99431729  0.82055286    -0.07300
Cl157      Cl  0.37030335  0.86779047  0.86535461    -0.50300
C158        C  0.48491548  0.98694556  0.74926238     0.42200
H159        H  0.28056334  0.91666185  0.03416755     0.06400
N160        N  0.26809086  0.93521871  0.75767228    -0.47000
C161        C  0.36883108  0.37371289  0.87226235    -0.02900
C162        C  0.36641566  0.87551582  0.36578106    -0.02900
C163        C  0.87987400  0.36983840  0.36722526    -0.02900
C164        C  0.99682406  0.99353008  0.73333767     0.42100
N165        N  0.02239943  0.05173234  0.67858761     0.01000
C166        C  0.25449423  0.05027835  0.53921253    -0.06900
H167        H  0.26213239  0.08063226  0.74307015     0.06500
C168        C  0.18502914  0.25146248  0.71941904    -0.07300
Co169      Co  0.12085619  0.02040551  0.62461752     0.74200
N170        N  0.20759504  0.06059329  0.68500974    -0.26400
Co171      Co  0.21361455  0.11893662  0.63108083     0.74100
C172        C  0.23591574  0.23638576  0.74147944     0.42200
N173        N  0.05767859  0.20347847  0.68545060     0.00600
N174        N  0.21161711  0.17788726  0.68717042     0.00700
N175        N  0.19292640  0.98807497  0.53652454    -0.47300
H176        H  0.06907214  0.94078026  0.71677818     0.06400
N177        N  0.17366925  0.02240901  0.68113781     0.01000
N178        N  0.21167339  0.17842215  0.57774901     0.00700
C179        C  0.23086339  0.23110840  0.51882909     0.42300
N180        N  0.02280910  0.16620745  0.68221478    -0.25900
C181        C  0.05667640  0.99027608  0.53331031    -0.06800
N182        N  0.98400942  0.03993380  0.71057199    -0.47000
N183        N  0.24729754  0.18708310  0.54271681    -0.47200
C184        C  0.00792189  0.00965786  0.51250357     0.42100
N185        N  0.18183934  0.02370888  0.57156860     0.01000
N186        N  0.02190267  0.17559301  0.57308631    -0.25900
N187        N  0.05964677  0.01545622  0.67770283    -0.26400
N188        N  0.05647737  0.21344369  0.57434429     0.00600
H189        H  0.95263372  0.16395147  0.52812134     0.06500
H190        H  0.15869190  0.28415142  0.53268883     0.06500
N191        N  0.21742007  0.06053734  0.57433483    -0.26500
N192        N  0.17350056  0.21340371  0.68647297    -0.26100
N193        N  0.02832974  0.06045939  0.57006788     0.01000
C194        C  0.20937141  0.00866512  0.75187444     0.42400
C195        C  0.99077344  0.16802912  0.72158635    -0.07300
N196        N  0.17363177  0.21429872  0.57772262    -0.26100
H197        H  0.16255731  0.28744497  0.72419049     0.06500
N198        N  0.17420444  0.98969388  0.71995352    -0.47300
H199        H  0.95756331  0.14311488  0.72820872     0.06500
C200        C  0.00323081  0.23662646  0.51431954     0.42200
C201        C  0.04705629  0.97697226  0.71087088    -0.06800
Co202      Co  0.02296670  0.11383994  0.62582121     0.73800
N203        N  0.05097331  0.23194537  0.72619576    -0.47000
C204        C  0.23815434  0.00202871  0.51359207     0.42500
N205        N  0.99180808  0.05282959  0.53637888    -0.47000
Co206      Co  0.11483031  0.21247655  0.63098345     0.73900
C207        C  0.18244737  0.24960492  0.54126427    -0.07300
C208        C  0.23186604  0.05541623  0.72910409    -0.06900
N209        N  0.06593361  0.02437646  0.56945557    -0.26400
N210        N  0.24990389  0.19052658  0.71878595    -0.47200
H211        H  0.28960681  0.07275387  0.53354966     0.06500
C212        C  0.98675692  0.18679517  0.53659014    -0.07300
Cl213      Cl  0.11828127  0.11656598  0.62775473    -0.50300
C214        C  0.00982523  0.21098443  0.75064323     0.42200
H215        H  0.07863271  0.95442177  0.52611610     0.06400
N216        N  0.04627644  0.25126756  0.54024630    -0.47000
C217        C  0.99255649  0.73411633  0.00506702     0.42100
N218        N  0.05079115  0.67566503  0.02555757     0.01000
C219        C  0.06315031  0.54106758  0.25610313    -0.06900
H220        H  0.09058293  0.74967050  0.25360310     0.06500
C221        C  0.25350829  0.72995706  0.17193328    -0.07300
Co222      Co  0.02612004  0.62154935  0.12312273     0.74200
N223        N  0.06909907  0.68763844  0.20352838    -0.26400
Co224      Co  0.12842193  0.63250505  0.20717952     0.74100
C225        C  0.23773483  0.75417622  0.21994677     0.42200
N226        N  0.20222293  0.68900084  0.05102961     0.00600
N227        N  0.18432707  0.69212395  0.20085420     0.00700
N228        N  0.99776219  0.53474064  0.19953456    -0.47300
H229        H  0.94502226  0.71718646  0.07754425     0.06400
N230        N  0.02950850  0.68214965  0.17229570     0.01000
N231        N  0.18733694  0.57671501  0.20125594     0.00700
C232        C  0.23162900  0.50597616  0.20811804     0.42300
N233        N  0.16384677  0.68266294  0.01866518    -0.25900
C234        C  0.99192675  0.52780221  0.06102548    -0.06800
N235        N  0.03722496  0.71005328  0.98957236    -0.47000
N236        N  0.19233580  0.53380547  0.22919747    -0.47200
C237        C  0.00820503  0.50772276  0.01233437     0.42100
N238        N  0.03349451  0.56866152  0.18385305     0.01000
N239        N  0.17664731  0.56978986  0.02226886    -0.25900
N240        N  0.01725654  0.67484673  0.06335441    -0.26400
N241        N  0.21654268  0.57414638  0.05320417     0.00600
H242        H  0.16156276  0.51962871  0.95927430     0.06500
H243        H  0.28376875  0.52588723  0.14025340     0.06500
N244        N  0.07198839  0.57356523  0.21642680    -0.26500
N245        N  0.21800351  0.69256295  0.16305188    -0.26100
N246        N  0.06314882  0.56306525  0.03422621     0.01000
C247        C  0.01630274  0.75659048  0.20484219     0.42400
C248        C  0.16353983  0.72124161  0.98446756    -0.07300
N249        N  0.22176912  0.57849485  0.16398036    -0.26100
H250        H  0.28804094  0.73711904  0.14931641     0.06500
N251        N  0.99641135  0.72214617  0.17262095    -0.47300
H252        H  0.13753730  0.72515553  0.95238194     0.06500
C253        C  0.23767960  0.50858742  0.00542023     0.42200
C254        C  0.97886047  0.71014575  0.05380869    -0.06800
Co255      Co  0.11376249  0.62253595  0.02432026     0.73800
N256        N  0.22919177  0.73131242  0.04072485    -0.47000
C257        C  0.01388836  0.51453370  0.24468895     0.42500
N258        N  0.05233111  0.53059880  0.99786042    -0.47000
Co259      Co  0.21642054  0.63407249  0.10764086     0.73900
C260        C  0.25266930  0.53599567  0.16634042    -0.07300
C261        C  0.06419644  0.73393418  0.22589324    -0.06900
N262        N  0.02829702  0.56283507  0.07114037    -0.26400
N263        N  0.19524576  0.72743630  0.23587036    -0.47200
H264        H  0.08606636  0.53986712  0.29043624     0.06500
C265        C  0.18643381  0.53012924  0.99044791    -0.07300
Cl266      Cl  0.12127972  0.62742537  0.11571018    -0.50300
C267        C  0.20606316  0.75357403  0.99974117     0.42200
H268        H  0.95539375  0.52317858  0.08120809     0.06400
N269        N  0.25425402  0.53887906  0.04395189    -0.47000
C270        C  0.75006400  0.01418618  0.20510950     0.42100
N271        N  0.67978261  0.05937913  0.20236387     0.01000
C272        C  0.52497518  0.06463471  0.99463779    -0.06900
H273        H  0.71392908  0.07302538  0.95093081     0.06500
C274        C  0.73484355  0.23094751  0.05743699    -0.07300
Co275      Co  0.61762236  0.02704263  0.11524687     0.74200
N276        N  0.67225138  0.06224640  0.02149406    -0.26400
Co277      Co  0.62035645  0.12566848  0.02635763     0.74100
C278        C  0.75515476  0.20622483  0.01161889     0.42200
N279        N  0.68857937  0.21269113  0.17973682     0.00600
N280        N  0.68159241  0.17447289  0.02852007     0.00700
N281        N  0.52605540  0.99949080  0.05446395    -0.47300
H282        H  0.72635987  0.96238028  0.13935942     0.06400
N283        N  0.67189903  0.02397663  0.05537628     0.01000
N284        N  0.56934907  0.18984883  0.02887301     0.00700
C285        C  0.51404699  0.25031468  0.00630395     0.42300
N286        N  0.68408261  0.17460651  0.21364700    -0.25900
C287        C  0.52695250  0.99166345  0.18530691    -0.06800
N288        N  0.72403113  0.05424661  0.22721760    -0.47000
N289        N  0.53381700  0.20265143  0.99409021    -0.47200
C290        C  0.50552061  0.00683287  0.23442860     0.42100
N291        N  0.55975456  0.03612768  0.06417554     0.01000
N292        N  0.57032783  0.17970983  0.20739566    -0.25900
N293        N  0.67608515  0.02472755  0.16597689    -0.26400
N294        N  0.57500747  0.21880976  0.17428018     0.00600
H295        H  0.51054324  0.16027118  0.26168720     0.06500
H296        H  0.53892913  0.30339645  0.07187349     0.06500
N297        N  0.56059992  0.07389558  0.02956283    -0.26500
N298        N  0.68871318  0.20867529  0.06486737    -0.26100
N299        N  0.56499647  0.06191655  0.21082431     0.01000
C300        C  0.72916778  0.99926523  0.00006892     0.42400
C301        C  0.71766658  0.18300043  0.25177370    -0.07300
N302        N  0.57539774  0.22660512  0.06299704    -0.26100
H303        H  0.75126134  0.26166384  0.08013605     0.06500
N304        N  0.70438365  0.98466911  0.04331467    -0.47300
H305        H  0.72110704  0.15846906  0.28530551     0.06500
C306        C  0.50266454  0.23372224  0.21035265     0.42200
C307        C  0.71841536  0.99414871  0.16519066    -0.06800
Co308      Co  0.62462132  0.11871727  0.21030065     0.73800
N309        N  0.72321270  0.24840173  0.19387294    -0.47000
C310        C  0.50349054  0.01515064  0.01130227     0.42500
N311        N  0.53133176  0.05078790  0.24799242    -0.47000
Co312      Co  0.63266476  0.21850016  0.12044276     0.73900
C313        C  0.54207941  0.26673329  0.05173079    -0.07300
C314        C  0.70689060  0.05013229  0.98498161    -0.06900
N315        N  0.56348929  0.02733987  0.17424577    -0.26400
N316        N  0.71996926  0.17230670  0.99564203    -0.47200
H317        H  0.52076038  0.08544336  0.95885272     0.06500
C318        C  0.52547663  0.18601923  0.23233076    -0.07300
Cl319      Cl  0.62365561  0.12265547  0.11827404    -0.50300
C320        C  0.74348300  0.23269432  0.23948045     0.42200
H321        H  0.51870174  0.95739603  0.16306604     0.06400
N322        N  0.53573370  0.25279497  0.17562195    -0.47000
C323        C  0.62011874  0.61839715  0.11813712    -0.02900
C324        C  0.12040081  0.61999482  0.61456331    -0.02900
C325        C  0.23621294  0.47865056  0.47248786     0.42100
N326        N  0.29535935  0.45792021  0.41676632     0.01000
C327        C  0.30212029  0.23374504  0.26793805    -0.06900
H328        H  0.33051945  0.20299137  0.46352592     0.06500
C329        C  0.49956654  0.29957545  0.44835862    -0.07300
Co330      Co  0.26695186  0.36158146  0.35945876     0.74200
N331        N  0.31117717  0.26895372  0.41460450    -0.26400
Co332      Co  0.36851639  0.27040159  0.36013446     0.74100
C333        C  0.48491850  0.24979658  0.47231830     0.42200
N334        N  0.45209306  0.42532188  0.41670274     0.00600
N335        N  0.42800705  0.27184228  0.41503958     0.00700
N336        N  0.23619829  0.29366444  0.26874085    -0.47300
H337        H  0.18917230  0.40452828  0.45407334     0.06400
N338        N  0.27212863  0.30361964  0.41401589     0.01000
N339        N  0.42384344  0.27768783  0.30470354     0.00700
C340        C  0.46750631  0.26678687  0.23740237     0.42300
N341        N  0.41324463  0.46016827  0.41845213    -0.25900
C342        C  0.23956050  0.42509847  0.26333814    -0.06800
N343        N  0.28189514  0.49382665  0.45080545    -0.47000
N344        N  0.42958209  0.24604666  0.26607714    -0.47200
C345        C  0.26175167  0.47014926  0.23768600     0.42100
N346        N  0.27156276  0.30356727  0.30400662     0.01000
N347        N  0.41737121  0.46853800  0.30954850    -0.25900
N348        N  0.26117103  0.41980467  0.41448548    -0.26400
N349        N  0.45555730  0.43328202  0.30762840     0.00600
H350        H  0.40660800  0.54472649  0.27439877     0.06500
H351        H  0.51752586  0.33937812  0.25168486     0.06500
N352        N  0.31017466  0.26867219  0.30476683    -0.26500
N353        N  0.46223887  0.30999150  0.41375304    -0.26100
N354        N  0.30297347  0.45714488  0.30621735     0.01000
C355        C  0.25740365  0.25477164  0.47716948     0.42400
C356        C  0.42132861  0.49269423  0.45660462    -0.07300
N357        N  0.45683622  0.31691451  0.30372892    -0.26100
H358        H  0.53377271  0.32302410  0.45465564     0.06500
N359        N  0.23857274  0.29646468  0.45117461    -0.47300
H360        H  0.39770221  0.52690164  0.46589788     0.06500
C361        C  0.47963607  0.49411965  0.25486690     0.42200
C362        C  0.22285725  0.42900440  0.44841381    -0.06800
Co363      Co  0.35678617  0.46219812  0.36312095     0.73800
N364        N  0.48768299  0.43221686  0.45168209    -0.47000
C365        C  0.25366776  0.25109924  0.24311870     0.42500
N366        N  0.30016037  0.48870937  0.26657526    -0.47000
Co367      Co  0.45774240  0.37121448  0.36030375     0.73900
C368        C  0.48591075  0.31362260  0.26208780    -0.07300
C369        C  0.30512787  0.23594656  0.45361346    -0.06900
N370        N  0.26827634  0.41944009  0.30504314    -0.26400
N371        N  0.44040199  0.23469689  0.44909059    -0.47200
H372        H  0.32608247  0.19921181  0.26069870     0.06500
C373        C  0.42895036  0.50842565  0.27771674    -0.07300
Cl374      Cl  0.36250069  0.36642292  0.36112041    -0.50300
C375        C  0.47039866  0.47361679  0.47789376     0.42200
H376        H  0.20770130  0.40037318  0.25212411     0.06400
N377        N  0.49381827  0.44737763  0.27634191    -0.47000
C378        C  0.73459231  0.74174465  0.71876088     0.42100
N379        N  0.71260337  0.68263839  0.66538584     0.01000
C380        C  0.47950677  0.68659433  0.52892820    -0.06900
H381        H  0.47005727  0.65209352  0.72872890     0.06500
C382        C  0.55371036  0.48072810  0.70642587    -0.07300
Co383      Co  0.61454749  0.71331294  0.61089454     0.74200
N384        N  0.52741078  0.67176951  0.67210174    -0.26400
Co385      Co  0.52367325  0.61451333  0.61813629     0.74100
C386        C  0.50291076  0.49576209  0.72835778     0.42200
N387        N  0.67971948  0.52906752  0.67261744     0.00600
N388        N  0.52702650  0.55480899  0.67372537     0.00700
N389        N  0.54113275  0.74873657  0.52551863    -0.47300
H390        H  0.65979389  0.79066091  0.70202435     0.06400
N391        N  0.56110370  0.71021927  0.66802450     0.01000
N392        N  0.52656607  0.55655159  0.56504866     0.00700
C393        C  0.50269673  0.50118189  0.51192176     0.42300
N394        N  0.71421451  0.56691100  0.67077615    -0.25900
C395        C  0.67906864  0.74493597  0.51786592    -0.06800
N396        N  0.74969393  0.69551876  0.69788260    -0.47000
N397        N  0.48810651  0.54605778  0.53404169    -0.47200
C398        C  0.72795651  0.72619424  0.49661364     0.42100
N399        N  0.55380195  0.71091193  0.55852740     0.01000
N400        N  0.71787876  0.55992890  0.56098634    -0.25900
N401        N  0.67428385  0.71773922  0.66354676    -0.26400
N402        N  0.68354253  0.52183282  0.56110157     0.00600
H403        H  0.78870055  0.57333149  0.51870252     0.06500
H404        H  0.57523201  0.44797336  0.52463878     0.06500
N405        N  0.51823590  0.67414021  0.56182223    -0.26500
N406        N  0.56491885  0.51907957  0.67273149    -0.26100
N407        N  0.70885494  0.67556802  0.55671124     0.01000
C408        C  0.52245351  0.72410175  0.73746092     0.42400
C409        C  0.74307555  0.56514879  0.71256568    -0.07300
N410        N  0.56479246  0.52079554  0.56441557    -0.26100
H411        H  0.57683510  0.44523874  0.71231233     0.06500
N412        N  0.55870324  0.74315731  0.70590287    -0.47300
H413        H  0.77452968  0.59127628  0.72171123     0.06500
C414        C  0.74024859  0.49966878  0.50319687     0.42200
C415        C  0.68415191  0.75612512  0.69633268    -0.06800
Co416      Co  0.71453967  0.62098934  0.61341926     0.73800
N417        N  0.68304413  0.50095353  0.71465360    -0.47000
C418        C  0.49483215  0.73647550  0.50442874     0.42500
N419        N  0.74486620  0.68357564  0.52210489    -0.47000
Co420      Co  0.62381958  0.52137104  0.61734523     0.73900
C421        C  0.55322778  0.48393696  0.53114070    -0.07300
C422        C  0.50100371  0.67717497  0.71522994    -0.06900
N423        N  0.67047400  0.71094256  0.55538341    -0.26400
N424        N  0.48921291  0.54228348  0.70610921    -0.47200
H425        H  0.44368890  0.66503850  0.52490565     0.06500
C426        C  0.75470882  0.54961328  0.52596421    -0.07300
Cl427      Cl  0.61902938  0.61739052  0.61436777    -0.50300
C428        C  0.72152556  0.52225778  0.74182288     0.42200
H429        H  0.65623288  0.78013236  0.50946012     0.06400
N430        N  0.69577891  0.48466726  0.52759954    -0.47000
C431        C  0.61815805  0.11814277  0.61243684    -0.02900
C432        C  0.12065196  0.11779745  0.11410415    -0.02900
C433        C  0.19109875  0.18622087  0.12948066    -0.09500
C434        C  0.15524505  0.15059497  0.15202772     0.06700
C435        C  0.15587415  0.14806945  0.20679860    -0.03300
C436        C  0.18670465  0.18268555  0.23449474    -0.07800
C437        C  0.22006342  0.21819817  0.21102165     0.05800
C438        C  0.22292261  0.21917087  0.15804626    -0.02800
Br439      Br  0.27002641  0.26498027  0.12308178    -0.02500
H440        H  0.19383346  0.18912040  0.08862925     0.09700
H441        H  0.18634674  0.18049095  0.27553475     0.07700
Br442      Br  0.12510238  0.09650884  0.25149478    -0.02900
C443        C  0.57200837  0.21670795  0.50375004    -0.09500
C444        C  0.51735185  0.21682997  0.50812455     0.06700
C445        C  0.49517224  0.18513590  0.54619891    -0.03300
C446        C  0.52726686  0.15482164  0.57887508    -0.07800
C447        C  0.58298732  0.15444427  0.57597921     0.05800
C448        C  0.60447006  0.18572942  0.53565045    -0.02800
Br449      Br  0.67791832  0.18940593  0.52018306    -0.02500
H450        H  0.58995820  0.24019006  0.47408388     0.09700
H451        H  0.50686617  0.13004661  0.60554314     0.07700
Br452      Br  0.42087322  0.18290457  0.55672435    -0.02900
C453        C  0.23501225  0.53850592  0.54659011    -0.09500
C454        C  0.20649520  0.50986223  0.51152170     0.06700
C455        C  0.15135195  0.51298343  0.51464426    -0.03300
C456        C  0.12686098  0.54673983  0.54962876    -0.07800
C457        C  0.15495169  0.57913563  0.58328231     0.05800
C458        C  0.21098604  0.57093325  0.58313633    -0.02800
Br459      Br  0.26154740  0.59571060  0.63081353    -0.02500
H460        H  0.27730198  0.53468260  0.54616439     0.09700
H461        H  0.08459405  0.54977982  0.54857418     0.07700
Br462      Br  0.10600313  0.47664739  0.46958391    -0.02900
C463        C  0.52812431  0.59306388  0.15515452    -0.09500
C464        C  0.58356641  0.58719002  0.15673345     0.06700
C465        C  0.60324052  0.55260947  0.19571558    -0.03300
C466        C  0.56898480  0.52288058  0.22638986    -0.07800
C467        C  0.51430743  0.52692266  0.22144011     0.05800
C468        C  0.49427639  0.56278690  0.18505500    -0.02800
Br469      Br  0.42094248  0.56969957  0.17016692    -0.02500
H470        H  0.50936302  0.62143186  0.13030584     0.09700
H471        H  0.58548402  0.49637423  0.25477840     0.07700
Br472      Br  0.67643605  0.54160811  0.20939324    -0.02900
C473        C  0.81333989  0.29592701  0.35362328    -0.09500
C474        C  0.84873045  0.33141437  0.33063386     0.06700
C475        C  0.85291645  0.32695303  0.27614703    -0.03300
C476        C  0.81788999  0.29562667  0.24864722    -0.07800
C477        C  0.77983408  0.26466528  0.27211536     0.05800
C478        C  0.77854711  0.26482469  0.32579754    -0.02800
Br479      Br  0.72672775  0.22850523  0.36477444    -0.02500
H480        H  0.81017231  0.29487677  0.39452144     0.09700
H481        H  0.82149829  0.29419423  0.20778783     0.07700
Br482      Br  0.90715027  0.35430385  0.23269337    -0.02900
C483        C  0.92653863  0.48204428  0.27419682    -0.09500
C484        C  0.98135885  0.47945899  0.27809429     0.06700
C485        C  0.00313891  0.44297758  0.31306342    -0.03300
C486        C  0.97075128  0.40973610  0.34183565    -0.07800
C487        C  0.91542609  0.40932144  0.33626183     0.05800
C488        C  0.89386143  0.44862524  0.30273172    -0.02800
Br489      Br  0.82030982  0.45598810  0.28847468    -0.02500
H490        H  0.90865664  0.50999287  0.24800518     0.09700
H491        H  0.99015732  0.38488434  0.36921862     0.07700
Br492      Br  0.07725861  0.43309422  0.32156835    -0.02900
C493        C  0.90013544  0.33032042  0.45811285    -0.09500
C494        C  0.91235942  0.33228076  0.40532614     0.06700
C495        C  0.95316440  0.29639364  0.38999376    -0.03300
C496        C  0.98314992  0.26754209  0.42593761    -0.07800
C497        C  0.97276554  0.27025422  0.47782579     0.05800
C498        C  0.92994477  0.30105910  0.49354695    -0.02800
Br499      Br  0.91012218  0.30399406  0.56362996    -0.02500
H500        H  0.86658684  0.35092243  0.47331787     0.09700
H501        H  0.01449106  0.24179311  0.41305010     0.07700
Br502      Br  0.97239129  0.28308671  0.32123834    -0.02900
C503        C  0.78611066  0.40353442  0.39873828    -0.09500
C504        C  0.84171090  0.40695246  0.40002631     0.06700
C505        C  0.86140502  0.44484487  0.43481126    -0.03300
C506        C  0.82767000  0.47412800  0.46638294    -0.07800
C507        C  0.77331433  0.46737259  0.46700058     0.05800
C508        C  0.75282648  0.43126383  0.43243578    -0.02800
Br509      Br  0.67918019  0.41881897  0.42835434    -0.02500
H510        H  0.76698447  0.37963794  0.37129033     0.09700
H511        H  0.84485072  0.50142965  0.49242354     0.07700
Br512      Br  0.93435632  0.45739236  0.44649947    -0.02900
C513        C  0.31760412  0.76393576  0.27325783    -0.09500
C514        C  0.27113096  0.78593605  0.25425864     0.06700
C515        C  0.25784512  0.83753277  0.26839350    -0.03300
C516        C  0.29027419  0.86541741  0.30150621    -0.07800
C517        C  0.33430643  0.84190788  0.32623431     0.05800
C518        C  0.34933849  0.79057372  0.30786675    -0.02800
Br519      Br  0.41308153  0.75197313  0.32289077    -0.02500
H520        H  0.32933001  0.72494853  0.26108507     0.09700
H521        H  0.27933120  0.90561586  0.30941631     0.07700
Br522      Br  0.19571937  0.87183099  0.24296000    -0.02900
C523        C  0.44348046  0.89047598  0.30404703    -0.09500
C524        C  0.40038655  0.91287461  0.33032906     0.06700
C525        C  0.38962516  0.96738408  0.31854122    -0.03300
C526        C  0.42534592  0.99735871  0.28952244    -0.07800
C527        C  0.47035245  0.97469193  0.26787731     0.05800
C528        C  0.47874759  0.92029122  0.27533014    -0.02800
Br529      Br  0.54041071  0.88435652  0.25121513    -0.02500
H530        H  0.45228626  0.84918808  0.30822689     0.09700
H531        H  0.41654584  0.03849050  0.28176643     0.07700
Br532      Br  0.32503026  0.00425466  0.33286163    -0.02900
C533        C  0.32300629  0.97530718  0.47231186    -0.09500
C534        C  0.26880907  0.96907850  0.47614193     0.06700
C535        C  0.24612137  0.93093353  0.44488814    -0.03300
C536        C  0.27719610  0.90114697  0.41104739    -0.07800
C537        C  0.33191180  0.90851376  0.40489431     0.05800
C538        C  0.35427024  0.94599741  0.43852180    -0.02800
Br539      Br  0.42685470  0.96410798  0.44052025    -0.02500
H540        H  0.34185618  0.00346797  0.49630698     0.09700
H541        H  0.25728773  0.87136589  0.39027507     0.07700
Br542      Br  0.17225640  0.91839944  0.44463845    -0.02900
C543        C  0.45440675  0.84679372  0.41051361    -0.09500
C544        C  0.40035888  0.83832862  0.40216602     0.06700
C545        C  0.37829860  0.79597606  0.43101771    -0.03300
C546        C  0.40974818  0.76342958  0.46264765    -0.07800
C547        C  0.46337207  0.77210179  0.46948924     0.05800
C548        C  0.48511399  0.81552847  0.44353262    -0.02800
Br549      Br  0.55661944  0.83633826  0.45111283    -0.02500
H550        H  0.47398783  0.87933910  0.39281603     0.09700
H551        H  0.39150747  0.73114656  0.48262768     0.07700
Br552      Br  0.30622551  0.77603410  0.42768745    -0.02900
C553        C  0.26314658  0.32478085  0.77411124    -0.09500
C554        C  0.27085552  0.26994825  0.77375773     0.06700
C555        C  0.31218201  0.24919585  0.80363766    -0.03300
C556        C  0.34367501  0.28247655  0.83273717    -0.07800
C557        C  0.33411281  0.33761645  0.83657317     0.05800
C558        C  0.29403829  0.35818461  0.80362532    -0.02800
Br559      Br  0.27700899  0.43155272  0.79597158    -0.02500
H560        H  0.23287813  0.34241539  0.75053132     0.09700
H561        H  0.37587464  0.26380350  0.85265565     0.07700
Br562      Br  0.32596842  0.17497640  0.80927415    -0.02900
C563        C  0.32501299  0.47028700  0.98077478    -0.09500
C564        C  0.27036055  0.46836591  0.97827885     0.06700
C565        C  0.24842168  0.42906026  0.94827267    -0.03300
C566        C  0.28010104  0.39915958  0.91569887    -0.07800
C567        C  0.33502654  0.40557477  0.91208176     0.05800
C568        C  0.35729849  0.43878940  0.94974962    -0.02800
Br569      Br  0.43085579  0.45017834  0.95863532    -0.02500
H570        H  0.34304018  0.49821892  0.00566707     0.09700
H571        H  0.26062682  0.36953024  0.89427659     0.07700
Br572      Br  0.17635844  0.40958861  0.95391954    -0.02900
C573        C  0.42450138  0.27300253  0.97454964    -0.09500
C574        C  0.47826365  0.28186253  0.97302487     0.06700
C575        C  0.49722324  0.31882243  0.93800629    -0.03300
C576        C  0.46280793  0.34570359  0.90485397    -0.07800
C577        C  0.40759152  0.33867265  0.90618118     0.05800
C578        C  0.38932759  0.30108677  0.94293594    -0.02800
Br579      Br  0.31714593  0.28338209  0.95283375    -0.02500
H580        H  0.40953025  0.24413054  0.00115206     0.09700
H581        H  0.48031996  0.37486224  0.88053352     0.07700
Br582      Br  0.57025296  0.33503377  0.93499933    -0.02900
C583        C  0.43162807  0.38364978  0.79727282    -0.09500
C584        C  0.40049868  0.41014556  0.83392248     0.06700
C585        C  0.40082937  0.46681166  0.83029916    -0.03300
C586        C  0.43540946  0.49245285  0.79681956    -0.07800
C587        C  0.46810819  0.46507398  0.76338982     0.05800
C588        C  0.46409315  0.40988370  0.76250155    -0.02800
Br589      Br  0.49739437  0.36762295  0.71170729    -0.02500
H590        H  0.43120625  0.34113814  0.79596859     0.09700
H591        H  0.43585959  0.53506674  0.79596426     0.07700
Br592      Br  0.35348301  0.51629209  0.86176370    -0.02900
C593        C  0.17684745  0.69871652  0.73111237    -0.09500
C594        C  0.21945743  0.72439848  0.70916824     0.06700
C595        C  0.22526292  0.72098933  0.65598846    -0.03300
C596        C  0.19079268  0.69043665  0.62722695    -0.07800
C597        C  0.15186176  0.65864330  0.64968229     0.05800
C598        C  0.14177597  0.66898223  0.70225423    -0.02800
Br599      Br  0.07693505  0.65613687  0.73709771    -0.02500
H600        H  0.16897805  0.70432685  0.77103639     0.09700
H601        H  0.19773074  0.68799800  0.58697020     0.07700
Br602      Br  0.28358952  0.75070976  0.62046004    -0.02900
C603        C  0.16887877  0.09818024  0.02881346    -0.09500
C604        C  0.16208800  0.08640869  0.08118483     0.06700
C605        C  0.19899890  0.04923497  0.10208418    -0.03300
C606        C  0.23211409  0.01960169  0.07048989    -0.07800
C607        C  0.23293125  0.02727781  0.01788232     0.05800
C608        C  0.20222118  0.06873265  0.99743487    -0.02800
Br609      Br  0.20198373  0.08679431  0.92661979    -0.02500
H610        H  0.14862652  0.13082425  0.01086652     0.09700
H611        H  0.25757013  0.98996598  0.08759444     0.07700
Br612      Br  0.20577924  0.03189758  0.17258875    -0.02900
C613        C  0.52002527  0.65775624  0.00995021    -0.09500
C614        C  0.52133176  0.71265583  0.00912217     0.06700
C615        C  0.55712161  0.73720887  0.04140105    -0.03300
C616        C  0.58834303  0.70721628  0.07519309    -0.07800
C617        C  0.58553265  0.65161665  0.07892393     0.05800
C618        C  0.55108767  0.62737289  0.04342766    -0.02800
Br619      Br  0.53932543  0.55299343  0.03923340    -0.02500
H620        H  0.49312547  0.63797757  0.98525509     0.09700
H621        H  0.61595457  0.72850780  0.09749448     0.07700
Br622      Br  0.56801395  0.81171627  0.03888120    -0.02900
C623        C  0.52033838  0.07384498  0.72006881    -0.09500
C624        C  0.51912800  0.01898450  0.71495814     0.06700
C625        C  0.55089270  0.99615061  0.67737828    -0.03300
C626        C  0.58225296  0.02766474  0.64605180    -0.07800
C627        C  0.58262987  0.08353354  0.64890303     0.05800
C628        C  0.55104767  0.10583513  0.68826127    -0.02800
Br629      Br  0.54528361  0.18007131  0.70086431    -0.02500
H630        H  0.49633115  0.09252156  0.74869194     0.09700
H631        H  0.60765114  0.00666615  0.62056062     0.07700
Br632      Br  0.55631807  0.92138869  0.66865833    -0.02900
C633        C  0.71324485  0.16170533  0.72283281    -0.09500
C634        C  0.71694118  0.21617477  0.71552394     0.06700
C635        C  0.68918461  0.23891432  0.67459084    -0.03300
C636        C  0.65742646  0.20804773  0.64337884    -0.07800
C637        C  0.65436160  0.15231986  0.64855786     0.05800
C638        C  0.68393075  0.12993344  0.69005430    -0.02800
Br639      Br  0.68844783  0.05591008  0.70539756    -0.02500
H640        H  0.73441049  0.14330442  0.75401201     0.09700
H641        H  0.63469274  0.22929495  0.61546348     0.07700
Br642      Br  0.69233663  0.31292802  0.66020248    -0.02900
C643        C  0.02742040  0.17475172  0.00655695    -0.09500
C644        C  0.02582704  0.22845613  0.01659015     0.06700
C645        C  0.05025060  0.24596856  0.06070751    -0.03300
C646        C  0.08008066  0.21089891  0.09097231    -0.07800
C647        C  0.08565013  0.15650279  0.07969567     0.05800
C648        C  0.05431128  0.13882216  0.03843091    -0.02800
Br649      Br  0.04527539  0.06667109  0.02121995    -0.02500
H650        H  0.00603299  0.16031469  0.97433391     0.09700
H651        H  0.09706227  0.22689814  0.12470126     0.07700
Br652      Br  0.04273386  0.31751793  0.08205533    -0.02900
C653        C  0.71379818  0.56440384  0.01099368    -0.09500
C654        C  0.70845459  0.50998642  0.01529445     0.06700
C655        C  0.67563837  0.49011584  0.05337668    -0.03300
C656        C  0.64923093  0.52435223  0.08656355    -0.07800
C657        C  0.65362425  0.58003387  0.08317349     0.05800
C658        C  0.68675536  0.59919320  0.04317660    -0.02800
Br659      Br  0.69984453  0.67231164  0.02946574    -0.02500
H660        H  0.73969135  0.58015334  0.98223431     0.09700
H661        H  0.62322811  0.50613898  0.11339675     0.07700
Br662      Br  0.66527833  0.41590421  0.06121399    -0.02900
C663        C  0.02759610  0.58075239  0.63650388    -0.09500
C664        C  0.08219175  0.58291503  0.64650898     0.06700
C665        C  0.10045046  0.54699791  0.68515616    -0.03300
C666        C  0.06551159  0.51659120  0.71437640    -0.07800
C667        C  0.01123306  0.51799795  0.70641724     0.05800
C668        C  0.99270563  0.55056466  0.66617531    -0.02800
Br669      Br  0.91975990  0.55890636  0.65067396    -0.02500
H670        H  0.01071324  0.60207484  0.60486648     0.09700
H671        H  0.08138133  0.49114204  0.74396885     0.07700
Br672      Br  0.17224484  0.53734445  0.70364893    -0.02900
C673        C  0.71236828  0.64898748  0.15016469    -0.09500
C674        C  0.65689279  0.65431903  0.15180579     0.06700
C675        C  0.63727581  0.69245829  0.18690668    -0.03300
C676        C  0.67145618  0.72391137  0.21524197    -0.07800
C677        C  0.72620768  0.71911866  0.21144473     0.05800
C678        C  0.74620321  0.68122919  0.17757176    -0.05200
Br679      Br  0.81953112  0.67338955  0.16301018    -0.02500
H680        H  0.73104403  0.61925446  0.12743051     0.09700
H681        H  0.65472713  0.75225456  0.24116636     0.07700
Br682      Br  0.56413381  0.70569634  0.19902880    -0.02900
C683        C  0.04272285  0.00227167  0.17963237    -0.09500
C684        C  0.01032990  0.03102285  0.21227825     0.06700
C685        C  0.00780518  0.08619651  0.20588524    -0.03300
C686        C  0.04117331  0.11096194  0.17122624    -0.07800
C687        C  0.07949542  0.08305393  0.14281799     0.05800
C688        C  0.07536408  0.02673902  0.14386515    -0.02800
Br689      Br  0.10563269  0.97709853  0.09722464    -0.02500
H690        H  0.04223432  0.95969014  0.18169118     0.09700
H691        H  0.04068303  0.15349856  0.17053237     0.07700
Br692      Br  0.96788255  0.13231579  0.24873656    -0.02900
C693        C  0.06731257  0.69642326  0.49139231    -0.09500
C694        C  0.02391845  0.72394558  0.51032714     0.06700
C695        C  0.01641738  0.72321201  0.56318163    -0.03300
C696        C  0.04878640  0.69157449  0.59505112    -0.07800
C697        C  0.08952890  0.65855079  0.57607025     0.05800
C698        C  0.10123070  0.66654153  0.52305767    -0.02800
Br699      Br  0.16655035  0.64979937  0.48997922    -0.02500
H700        H  0.07656747  0.70054389  0.45147942     0.09700
H701        H  0.04087533  0.69165707  0.63526957     0.07700
Br702      Br  0.96330844  0.76638166  0.59373573    -0.02900
C703        C  0.66061357  0.01807523  0.50585355    -0.09500
C704        C  0.71516340  0.01602043  0.51007785     0.06700
C705        C  0.73840443  0.04700541  0.54748111    -0.03300
C706        C  0.70749526  0.07892972  0.57925725    -0.07800
C707        C  0.65203018  0.08150430  0.57608834     0.05800
C708        C  0.62932091  0.05023456  0.53710260    -0.02800
Br709      Br  0.55553800  0.04618611  0.52375390    -0.02500
H710        H  0.64189355  0.99504681  0.47705456     0.09700
H711        H  0.72830500  0.10242072  0.60592309     0.07700
Br712      Br  0.81258659  0.04601850  0.55881349    -0.02900
C713        C  0.84444121  0.93218374  0.93417841    -0.09500
C714        C  0.82027428  0.89756205  0.89969513     0.06700
C715        C  0.76373116  0.89609302  0.90241188    -0.03300
C716        C  0.73592890  0.92946740  0.93538424    -0.07800
C717        C  0.76107270  0.96392260  0.96748235     0.05800
C718        C  0.81580842  0.96524389  0.96664514    -0.02800
Br719      Br  0.85315494  0.01204853  0.00931462    -0.02500
H720        H  0.88670715  0.93418562  0.93527041     0.09700
H721        H  0.69359158  0.92786884  0.93680333     0.07700
Br722      Br  0.71726783  0.84680479  0.87149835    -0.02900
C723        C  0.88925319  0.95310760  0.82772476    -0.09500
C724        C  0.89410181  0.89732488  0.82977074     0.06700
C725        C  0.93155260  0.87500734  0.79519852    -0.03300
C726        C  0.96427576  0.90692665  0.76548998    -0.07800
C727        C  0.96100730  0.96186446  0.76660409     0.05800
C728        C  0.92260130  0.98477723  0.79818279    -0.02800
Br729      Br  0.91526539  0.05953372  0.80532133    -0.02500
H730        H  0.85929709  0.97356282  0.84868975     0.09700
H731        H  0.99243270  0.88820441  0.74066648     0.07700
Br732      Br  0.94403451  0.80103920  0.78651756    -0.02900
C733        C  0.80000761  0.85313558  0.78938523    -0.09500
C734        C  0.82764701  0.82622287  0.82881882     0.06700
C735        C  0.82688371  0.76959621  0.82713119    -0.03300
C736        C  0.79565836  0.74425844  0.79148991    -0.07800
C737        C  0.76640454  0.77199168  0.75510595     0.05800
C738        C  0.76996816  0.82717544  0.75341134    -0.02800
Br739      Br  0.73729756  0.87012320  0.70177228    -0.02500
H740        H  0.80047077  0.89567806  0.78736575     0.09700
H741        H  0.79487216  0.70165153  0.79157452     0.07700
Br742      Br  0.86992028  0.71966603  0.86422097    -0.02900
C743        C  0.94883018  0.83573855  0.90620714    -0.09500
C744        C  0.89349084  0.83098418  0.90622396     0.06700
C745        C  0.87245769  0.80045904  0.94732018    -0.03300
C746        C  0.90556615  0.77128933  0.97984878    -0.07800
C747        C  0.95992215  0.77072701  0.97363971     0.05800
C748        C  0.98151607  0.80458858  0.93708327    -0.02800
Br749      Br  0.05560352  0.81183896  0.92794020    -0.02500
H750        H  0.96851110  0.86341494  0.88199026     0.09700
H751        H  0.88813647  0.74649311  0.00871576     0.07700
Br752      Br  0.79951105  0.78983229  0.96023400    -0.02900
loop_ 
_geom_bond_atom_site_label_1 
_geom_bond_atom_site_label_2 
_geom_bond_distance 
_geom_bond_site_symmetry_2 
_ccdc_geom_bond_type 
C1          C714   1.592       .  S
C1          C724   1.602       .  S
C1          C734   1.575       .  S
C1          C744   1.581       .  S
C2           N20   1.332       .  A
C2           C39   1.442   1_565  S
C2          C184   1.399   1_665  S
N3           N20   1.307       .  A
N3           N25   1.318       .  A
N3          Co40   2.017       .  S
C4           N29   1.327       .  A
C4           C42   1.453       .  S
C4           H49   1.082       .  S
H5           C46   1.082       .  S
C6           N30   1.329       .  A
C6           C10   1.447       .  S
C6           H35   1.082       .  S
Co7          N25   2.028       .  S
Co7          N15   2.078       .  S
Co7          N47   2.071       .  S
Co7          N23   2.017       .  S
Co7         Cl51   2.441       .  S
N8           C46   1.350       .  A
N8           N15   1.318       .  A
N8           Co9   2.121       .  S
Co9          N12   2.034       .  S
Co9          N29   2.042       .  S
Co9          N16   2.111       .  S
Co9         Cl51   2.439       .  S
C10          N48   1.334       .  A
C10         C398   1.412       .  S
N11          N18   1.319       .  A
N11          N41   1.335       .  A
N11         Co44   2.129       .  S
N12          N30   1.323       .  A
N12          N48   1.311       .  A
N13          C42   1.333   1_545  A
N13          N23   1.311   1_545  A
H14          C39   1.082       .  S
N15          N36   1.327       .  A
N16          N34   1.318       .  A
N16          N21   1.333       .  A
C17          N21   1.359       .  A
C17          C45   1.472       .  S
C17         C677   1.516       .  S
N18          C33   1.347   1_655  A
N18         Co40   2.098       .  S
C19          N47   1.340   1_545  A
C19          C22   1.458       .  S
C19          H53   1.079       .  S
C22          N43   1.357   1_545  A
C22         C684   1.491   1_655  S
N23          N29   1.315       .  A
N24          C50   1.326   1_655  A
N24          N26   1.316       .  A
N24         Co40   2.018       .  S
N25          C39   1.325   1_565  A
N26          N54   1.314       .  A
N26         Co44   2.061       .  S
H27          C50   1.081       .  S
H28          C45   1.080       .  S
N30         Co44   2.054       .  S
N31          N43   1.328       .  A
N31          N47   1.314       .  A
N31         Co40   2.101       .  S
C32          N36   1.351       .  A
C32          C46   1.474       .  S
C32         C704   1.502   1_565  S
C33          C52   1.464   1_455  S
C33          H37   1.082       .  S
N34          C45   1.346       .  A
N34         Co44   2.105       .  S
C38          N54   1.346       .  A
C38          C50   1.440   1_655  S
C38         C247   1.413   1_655  S
Co40        Cl51   2.441       .  S
N41          C52   1.361       .  A
C42         C270   1.405   1_565  S
Co44        Cl51   2.438       .  S
C52         C694   1.506   1_655  S
C55          N73   1.358       .  A
C55          C92   1.454       .  S
C55         C654   1.490   1_556  S
N56          N73   1.333       .  A
N56          N78   1.316       .  A
N56         Co93   2.118       .  S
C57          N82   1.350   1_455  A
C57          C95   1.468   1_455  S
C57         H102   1.082       .  S
H58          C99   1.082   1_455  S
C59          N83   1.350       .  A
C59          C63   1.475       .  S
C59          H88   1.080       .  S
Co60         N78   2.070       .  S
Co60         N68   2.021       .  S
Co60        N100   2.014       .  S
Co60         N76   2.073       .  S
Co60       Cl104   2.428       .  S
N61          C99   1.325       .  A
N61          N68   1.321       .  A
N61         Co62   2.043       .  S
Co62         N65   2.106       .  S
Co62         N82   2.108       .  S
Co62         N69   2.025       .  S
Co62       Cl104   2.451       .  S
C63         N101   1.360       .  A
C63         C667   1.521   1_655  S
N64          N71   1.322       .  A
N64          N94   1.313       .  A
N64         Co97   2.061       .  S
N65          N83   1.317       .  A
N65         N101   1.332       .  A
N66          C95   1.347       .  A
N66          N76   1.327       .  A
H67          C92   1.082   1_554  S
N68          N89   1.310       .  A
N69          N87   1.321       .  A
N69          N74   1.312       .  A
C70          N74   1.333       .  A
C70          C98   1.455       .  S
C70         C214   1.410   1_655  S
N71          C86   1.330       .  A
N71         Co93   2.052       .  S
C72         N100   1.322       .  A
C72          C75   1.431       .  S
C72         H106   1.081   1_556  S
C75          N96   1.352       .  A
C75         C278   1.413   1_556  S
N76          N82   1.316       .  A
N77         C103   1.352       .  A
N77          N79   1.319       .  A
N77         Co93   2.112       .  S
N78          C92   1.342       .  A
N79         N107   1.333       .  A
N79         Co97   2.113       .  S
H80         C103   1.082       .  S
H81          C98   1.082       .  S
N83         Co97   2.114       .  S
N84          N96   1.315       .  A
N84         N100   1.317       .  A
N84         Co93   2.069       .  S
C85          N89   1.332       .  A
C85          C99   1.446       .  S
C85         C237   1.411   1_656  S
C86         C105   1.446       .  S
C86          H90   1.081       .  S
N87          C98   1.329       .  A
N87         Co97   2.062       .  S
C91         N107   1.356       .  A
C91         C103   1.471       .  S
C91         C634   1.509       .  S
Co93       Cl104   2.459       .  S
N94         C105   1.343       .  A
C95         C644   1.487   1_656  S
Co97       Cl104   2.435       .  S
C105        C428   1.416       .  S
C108        N126   1.332       .  A
C108        C145   1.443       .  S
C108        C310   1.405   1_566  S
N109        N126   1.308       .  A
N109        N131   1.320       .  A
N109       Co146   2.018       .  S
C110        N135   1.331       .  A
C110        C148   1.459       .  S
C110        H155   1.082       .  S
H111        C152   1.082       .  S
C112        N136   1.329       .  A
C112        C116   1.453       .  S
C112        H141   1.081       .  S
Co113       N131   2.034       .  S
Co113       N121   2.074       .  S
Co113       N153   2.075       .  S
Co113       N129   2.025       .  S
Co113      Cl157   2.428       .  S
N114        C152   1.350       .  A
N114        N121   1.317       .  A
N114       Co115   2.116       .  S
Co115       N118   2.045       .  S
Co115       N135   2.059       .  S
Co115       N122   2.119       .  S
Co115      Cl157   2.453       .  S
C116        N154   1.339       .  A
C116        C408   1.420       .  S
N117        N124   1.315       .  A
N117        N147   1.330       .  A
N117       Co150   2.101       .  S
N118        N136   1.322       .  A
N118        N154   1.314       .  A
N119        C148   1.333       .  A
N119        N129   1.310       .  A
H120        C145   1.082   1_554  S
N121        N142   1.326       .  A
N122        N140   1.317       .  A
N122        N127   1.335       .  A
C123        N127   1.362       .  A
C123        C151   1.464       .  S
C123        C594   1.511       .  S
N124        C139   1.344   1_565  A
N124       Co146   2.079       .  S
C125        N153   1.342   1_554  A
C125        C128   1.464   1_554  S
C125        H159   1.081       .  S
C128        N149   1.353   1_565  A
C128        C607   1.494   1_566  S
N129        N135   1.318       .  A
N130        C156   1.322       .  A
N130        N132   1.317       .  A
N130       Co146   2.011       .  S
N131        C145   1.324       .  A
N132        N160   1.315       .  A
N132       Co150   2.065       .  S
H133        C156   1.079   1_545  S
H134        C151   1.081       .  S
N136       Co150   2.066       .  S
N137        N149   1.328   1_565  A
N137        N153   1.313       .  A
N137       Co146   2.091       .  S
C138        N142   1.350       .  A
C138        C152   1.473       .  S
C138        C614   1.499   1_556  S
C139        C158   1.464   1_545  S
C139        H143   1.082       .  S
N140        C151   1.345       .  A
N140       Co150   2.091       .  S
C144        N160   1.349       .  A
C144        C156   1.434       .  S
C144        C194   1.407   1_565  S
Co146      Cl157   2.439       .  S
N147        C158   1.357       .  A
C148        C267   1.412       .  S
Co150      Cl157   2.430       .  S
C158        C624   1.500   1_565  S
C161        C557   1.604       .  S
C161        C567   1.583       .  S
C161        C577   1.592       .  S
C161        C584   1.593       .  S
C162        C517   1.596       .  S
C162        C524   1.592       .  S
C162        C537   1.595       .  S
C162        C544   1.589       .  S
C163        C474   1.605       .  S
C163        C487   1.584       .  S
C163        C494   1.602       .  S
C163        C504   1.607       .  S
C164        N182   1.354   1_565  A
C164        C201   1.471   1_655  S
C164        C727   1.504       .  S
N165        N182   1.329   1_455  A
N165        N187   1.316       .  A
N165       Co202   2.093       .  S
C166        N191   1.350       .  A
C166        C204   1.476       .  S
C166        H211   1.081       .  S
H167        C208   1.082       .  S
C168        N192   1.347       .  A
C168        C172   1.470       .  S
C168        H197   1.081       .  S
Co169       N187   2.103       .  S
Co169       N177   2.017       .  S
Co169       N209   2.026       .  S
Co169       N185   2.096       .  S
Co169      Cl213   2.449       .  S
N170        C208   1.325       .  A
N170        N177   1.318       .  A
N170       Co171   2.051       .  S
Co171       N174   2.122       .  S
Co171       N191   2.125       .  S
Co171       N178   2.054       .  S
Co171      Cl213   2.441       .  S
C172        N210   1.361       .  A
C172        C554   1.517       .  S
N173        N180   1.316       .  A
N173        N203   1.314       .  A
N173       Co206   2.062       .  S
N174        N192   1.318       .  A
N174        N210   1.334       .  A
N175        C204   1.355   1_565  A
N175        N185   1.331   1_565  A
H176        C201   1.081       .  S
N177        N198   1.312   1_545  A
N178        N196   1.323       .  A
N178        N183   1.316       .  A
C179        N183   1.340       .  A
C179        C207   1.446       .  S
C179        C355   1.424       .  S
N180        C195   1.323   1_455  A
N180       Co202   2.011       .  S
C181        N209   1.323   1_565  A
C181        C184   1.440   1_565  S
C181        H215   1.082       .  S
C184        N205   1.333   1_455  A
N185        N191   1.319       .  A
N186        C212   1.344   1_455  A
N186        N188   1.319       .  A
N186       Co202   2.086       .  S
N187        C201   1.348   1_545  A
N188        N216   1.332       .  A
N188       Co206   2.115       .  S
H189        C212   1.082       .  S
H190        C207   1.082       .  S
N192       Co206   2.100       .  S
N193        N205   1.310   1_455  A
N193        N209   1.319       .  A
N193       Co202   2.019       .  S
C194        N198   1.334   1_545  A
C194        C208   1.452       .  S
C195        C214   1.436   1_655  S
C195        H199   1.081       .  S
N196        C207   1.330       .  A
N196       Co206   2.057       .  S
C200        N216   1.357       .  A
C200        C212   1.459   1_455  S
C200        C497   1.492   1_455  S
Co202      Cl213   2.440       .  S
N203        C214   1.347       .  A
C204        C534   1.514   1_545  S
Co206      Cl213   2.443       .  S
C217        N235   1.352   1_654  A
C217        C254   1.462       .  S
C217        C747   1.487   1_554  S
N218        N235   1.326   1_554  A
N218        N240   1.315       .  A
N218       Co255   2.086       .  S
C219        N244   1.347       .  A
C219        C257   1.472       .  S
C219        H264   1.080       .  S
H220        C261   1.081       .  S
C221        N245   1.349       .  A
C221        C225   1.470       .  S
C221        H250   1.082       .  S
Co222       N240   2.078       .  S
Co222       N230   2.032       .  S
Co222       N262   2.042       .  S
Co222       N238   2.087       .  S
Co222      Cl266   2.447       .  S
N223        C261   1.328       .  A
N223        N230   1.317       .  A
N223       Co224   2.050       .  S
Co224       N227   2.106       .  S
Co224       N244   2.110       .  S
Co224       N231   2.060       .  S
Co224      Cl266   2.428       .  S
C225        N263   1.355       .  A
C225        C514   1.499       .  S
N226        N233   1.316       .  A
N226        N256   1.313       .  A
N226       Co259   2.062       .  S
N227        N245   1.317       .  A
N227        N263   1.331       .  A
N228        C257   1.355   1_655  A
N228        N238   1.329   1_655  A
H229        C254   1.081       .  S
N230        N251   1.313   1_455  A
N231        N249   1.320       .  A
N231        N236   1.314       .  A
C232        N236   1.344       .  A
C232        C260   1.442       .  S
C232        C345   1.412       .  S
N233        C248   1.325   1_554  A
N233       Co255   2.015       .  S
C234        N262   1.328   1_655  A
C234        C237   1.448   1_655  S
C234        H268   1.082       .  S
C237        N258   1.331   1_554  A
N238        N244   1.317       .  A
N239        C265   1.342   1_554  A
N239        N241   1.315       .  A
N239       Co255   2.078       .  S
N240        C254   1.342   1_455  A
N241        N269   1.331       .  A
N241       Co259   2.109       .  S
H242        C265   1.080       .  S
H243        C260   1.081       .  S
N245       Co259   2.102       .  S
N246        N258   1.308   1_554  A
N246        N262   1.320       .  A
N246       Co255   2.021       .  S
C247        N251   1.337   1_455  A
C247        C261   1.453       .  S
C248        C267   1.436       .  S
C248        H252   1.081       .  S
N249        C260   1.329       .  A
N249       Co259   2.042       .  S
C253        N269   1.357       .  A
C253        C265   1.465   1_554  S
C253        C564   1.499   1_554  S
Co255      Cl266   2.427       .  S
N256        C267   1.348   1_554  A
C257        C484   1.506   1_455  S
Co259      Cl266   2.450       .  S
C270        N288   1.347       .  A
C270        C307   1.434   1_545  S
N271        N288   1.313       .  A
N271        N293   1.317       .  A
N271       Co308   2.061       .  S
C272        N297   1.324   1_556  A
C272        C310   1.445   1_556  S
C272        H317   1.082       .  S
H273        C314   1.081       .  S
C274        N298   1.330       .  A
C274        C278   1.462       .  S
C274        H303   1.082       .  S
Co275       N293   2.009       .  S
Co275       N283   2.103       .  S
Co275       N315   2.082       .  S
Co275       N291   2.013       .  S
Co275      Cl319   2.442       .  S
N276        C314   1.343   1_554  A
N276        N283   1.314       .  A
N276       Co277   2.077       .  S
Co277       N280   2.016       .  S
Co277       N297   2.034       .  S
Co277       N284   2.075       .  S
Co277      Cl319   2.429       .  S
C278        N316   1.330   1_554  A
N279        N286   1.317       .  A
N279        N309   1.336       .  A
N279       Co312   2.125       .  S
N280        N298   1.319       .  A
N280        N316   1.310   1_554  A
N281        C310   1.332   1_565  A
N281        N291   1.308   1_565  A
H282        C307   1.081       .  S
N283        N304   1.331   1_545  A
N284        N302   1.318       .  A
N284        N289   1.327   1_554  A
C285        N289   1.349   1_554  A
C285        C313   1.468       .  S
C285        C574   1.488   1_554  S
N286        C301   1.346       .  A
N286       Co308   2.101       .  S
C287        N315   1.342   1_565  A
C287        C290   1.461   1_565  S
C287        H321   1.081       .  S
C290        N311   1.360       .  A
C290        C527   1.503   1_545  S
N291        N297   1.318       .  A
N292        C318   1.330       .  A
N292        N294   1.323       .  A
N292       Co308   2.066       .  S
N293        C307   1.323   1_545  A
N294        N322   1.315       .  A
N294       Co312   2.046       .  S
H295        C318   1.082       .  S
H296        C313   1.082       .  S
N298       Co312   2.064       .  S
N299        N311   1.335       .  A
N299        N315   1.316       .  A
N299       Co308   2.118       .  S
C300        N304   1.356       .  A
C300        C314   1.456   1_564  S
C300        C717   1.486   1_554  S
C301        C320   1.468       .  S
C301        H305   1.080       .  S
N302        C313   1.349       .  A
N302       Co312   2.116       .  S
C306        N322   1.338       .  A
C306        C318   1.452       .  S
C306        C340   1.419       .  S
Co308      Cl319   2.431       .  S
N309        C320   1.365       .  A
Co312      Cl319   2.454       .  S
C320        C477   1.521       .  S
C323        C464   1.594       .  S
C323        C617   1.589       .  S
C323        C657   1.591       .  S
C323        C674   1.601       .  S
C324        C457   1.591       .  S
C324        C597   1.590       .  S
C324        C664   1.601       .  S
C324        C697   1.603       .  S
C325        N343   1.359       .  A
C325        C362   1.467       .  S
C325        C454   1.506       .  S
N326        N343   1.331       .  A
N326        N348   1.318       .  A
N326       Co363   2.116       .  S
C327        N352   1.344       .  A
C327        C365   1.462       .  S
C327        H372   1.082       .  S
H328        C369   1.082       .  S
C329        N353   1.344       .  A
C329        C333   1.462       .  S
C329        H358   1.081       .  S
Co330       N348   2.092       .  S
Co330       N338   2.051       .  S
Co330       N370   2.044       .  S
Co330       N346   2.095       .  S
Co330      Cl374   2.449       .  S
N331        C369   1.331       .  A
N331        N338   1.321       .  A
N331       Co332   2.052       .  S
Co332       N335   2.105       .  S
Co332       N352   2.092       .  S
Co332       N339   2.043       .  S
Co332      Cl374   2.446       .  S
C333        N371   1.357       .  A
C333        C444   1.498       .  S
N334        N341   1.322       .  A
N334        N364   1.313       .  A
N334       Co367   2.045       .  S
N335        N353   1.318       .  A
N335        N371   1.331       .  A
N336        C365   1.354       .  A
N336        N346   1.329       .  A
H337        C362   1.080       .  S
N338        N359   1.315       .  A
N339        N357   1.317       .  A
N339        N344   1.314       .  A
C340        N344   1.340       .  A
C340        C368   1.451       .  S
N341        C356   1.331       .  A
N341       Co363   2.056       .  S
C342        N370   1.330       .  A
C342        C345   1.447       .  S
C342        H376   1.081       .  S
C345        N366   1.341       .  A
N346        N352   1.317       .  A
N347        C373   1.346       .  A
N347        N349   1.316       .  A
N347       Co363   2.103       .  S
N348        C362   1.346       .  A
N349        N377   1.330       .  A
N349       Co367   2.091       .  S
H350        C373   1.081       .  S
H351        C368   1.082       .  S
N353       Co367   2.090       .  S
N354        N366   1.313       .  A
N354        N370   1.318       .  A
N354       Co363   2.046       .  S
C355        N359   1.339       .  A
C355        C369   1.446       .  S
C356        C375   1.450       .  S
C356        H360   1.082       .  S
N357        C368   1.329       .  A
N357       Co367   2.049       .  S
C361        N377   1.355       .  A
C361        C373   1.471       .  S
C361        C467   1.505       .  S
Co363      Cl374   2.440       .  S
N364        C375   1.337       .  A
C365        C437   1.484       .  S
Co367      Cl374   2.440       .  S
C375        C393   1.421       .  S
C378        N396   1.355       .  A
C378        C415   1.459       .  S
C378        C737   1.489       .  S
N379        N396   1.328       .  A
N379        N401   1.315       .  A
N379       Co416   2.097       .  S
C380        N405   1.350       .  A
C380        C418   1.475       .  S
C380        H425   1.081       .  S
H381        C422   1.082       .  S
C382        N406   1.346       .  A
C382        C386   1.468       .  S
C382        H411   1.081       .  S
Co383       N401   2.073       .  S
Co383       N391   2.035       .  S
Co383       N423   2.047       .  S
Co383       N399   2.084       .  S
Co383      Cl427   2.442       .  S
N384        C422   1.330       .  A
N384        N391   1.317       .  A
N384       Co385   2.055       .  S
Co385       N388   2.100       .  S
Co385       N405   2.114       .  S
Co385       N392   2.048       .  S
Co385      Cl427   2.442       .  S
C386        N424   1.356       .  A
C386        C587   1.503       .  S
N387        N394   1.317       .  A
N387        N417   1.315       .  A
N387       Co420   2.058       .  S
N388        N406   1.318       .  A
N388        N424   1.329       .  A
N389        C418   1.352       .  A
N389        N399   1.327       .  A
H390        C415   1.080       .  S
N391        N412   1.314       .  A
N392        N410   1.324       .  A
N392        N397   1.314       .  A
C393        N397   1.337       .  A
C393        C421   1.448       .  S
N394        C409   1.329       .  A
N394       Co416   2.033       .  S
C395        N423   1.327       .  A
C395        C398   1.445       .  S
C395        H429   1.082       .  S
C398        N419   1.335       .  A
N399        N405   1.317       .  A
N400        C426   1.344       .  A
N400        N402   1.318       .  A
N400       Co416   2.095       .  S
N401        C415   1.341       .  A
N402        N430   1.336       .  A
N402       Co420   2.128       .  S
H403        C426   1.082       .  S
H404        C421   1.082       .  S
N406       Co420   2.098       .  S
N407        N419   1.312       .  A
N407        N423   1.321       .  A
N407       Co416   2.033       .  S
C408        N412   1.338       .  A
C408        C422   1.453       .  S
C409        C428   1.445       .  S
C409        H413   1.081       .  S
N410        C421   1.331       .  A
N410       Co420   2.060       .  S
C414        N430   1.363       .  A
C414        C426   1.466       .  S
C414        C507   1.516       .  S
Co416      Cl427   2.445       .  S
N417        C428   1.344       .  A
C418        C547   1.509       .  S
Co420      Cl427   2.444       .  S
C431        C447   1.594       .  S
C431        C627   1.590       .  S
C431        C637   1.605       .  S
C431        C707   1.592       .  S
C432        C434   1.591       .  S
C432        C604   1.582       .  S
C432        C647   1.596       .  S
C432        C687   1.573       .  S
C433        H440   1.083       .  S
C433        C434   1.424       .  A
C433        C438   1.405       .  A
C434        C435   1.447       .  A
C435        C436   1.405       .  A
C435       Br442   1.929       .  S
C436        H441   1.085       .  S
C436        C437   1.392       .  A
C437        C438   1.401       .  A
C438       Br439   1.917       .  S
C443        H450   1.085       .  S
C443        C444   1.402       .  A
C443        C448   1.408       .  A
C444        C445   1.405       .  A
C445        C446   1.406       .  A
C445       Br452   1.921       .  S
C446        H451   1.078       .  S
C446        C447   1.426       .  A
C447        C448   1.435       .  A
C448       Br449   1.925       .  S
C453        H460   1.084       .  S
C453        C454   1.399       .  A
C453        C458   1.411       .  A
C454        C455   1.413       .  A
C455        C456   1.409       .  A
C455       Br462   1.920       .  S
C456        H461   1.083       .  S
C456        C457   1.423       .  A
C457        C458   1.444       .  A
C458       Br459   1.926       .  S
C463        H470   1.077       .  S
C463        C464   1.424       .  A
C463        C468   1.403       .  A
C464        C465   1.432       .  A
C465        C466   1.414       .  A
C465       Br472   1.922       .  S
C466        H471   1.083       .  S
C466        C467   1.406       .  A
C467        C468   1.408       .  A
C468       Br469   1.921       .  S
C473        H480   1.083       .  S
C473        C474   1.419       .  A
C473        C478   1.414       .  A
C474        C475   1.449       .  A
C475        C476   1.416       .  A
C475       Br482   1.931       .  S
C476        H481   1.084       .  S
C476        C477   1.400       .  A
C477        C478   1.418       .  A
C478       Br479   1.918       .  S
C483        H490   1.082       .  S
C483        C484   1.406       .  A
C483        C488   1.412       .  A
C484        C485   1.410   1_655  A
C485        C486   1.408   1_455  A
C485       Br492   1.921       .  S
C486        H491   1.072       .  S
C486        C487   1.423       .  A
C487        C488   1.431       .  A
C488       Br489   1.924       .  S
C493        H500   1.078       .  S
C493        C494   1.429       .  A
C493        C498   1.406       .  A
C494        C495   1.436       .  A
C495        C496   1.412       .  A
C495       Br502   1.913       .  S
C496        H501   1.084   1_655  S
C496        C497   1.398       .  A
C497        C498   1.401       .  A
C498       Br499   1.920       .  S
C503        H510   1.076       .  S
C503        C504   1.426       .  A
C503        C508   1.417       .  A
C504        C505   1.438       .  A
C505        C506   1.409       .  A
C505       Br512   1.924       .  S
C506        H511   1.083       .  S
C506        C507   1.403       .  A
C507        C508   1.411       .  A
C508       Br509   1.918       .  S
C513        H520   1.084       .  S
C513        C514   1.396       .  A
C513        C518   1.411       .  A
C514        C515   1.405       .  A
C515        C516   1.412       .  A
C515       Br522   1.918       .  S
C516        H521   1.079       .  S
C516        C517   1.422       .  A
C517        C518   1.445       .  A
C518       Br519   1.928       .  S
C523        H530   1.075       .  S
C523        C524   1.417       .  A
C523        C528   1.403       .  A
C524        C525   1.440       .  A
C525        C526   1.417       .  A
C525       Br532   1.925   1_565  S
C526        H531   1.084   1_565  S
C526        C527   1.403       .  A
C527        C528   1.408       .  A
C528       Br529   1.921       .  S
C533        H540   1.082   1_565  S
C533        C534   1.401       .  A
C533        C538   1.409       .  A
C534        C535   1.415       .  A
C535        C536   1.414       .  A
C535       Br542   1.921       .  S
C536        H541   1.076       .  S
C536        C537   1.423       .  A
C537        C538   1.438       .  A
C538       Br539   1.921       .  S
C543        H550   1.076       .  S
C543        C544   1.420       .  A
C543        C548   1.405       .  A
C544        C545   1.434       .  A
C545        C546   1.412       .  A
C545       Br552   1.922       .  S
C546        H551   1.082       .  S
C546        C547   1.405       .  A
C547        C548   1.414       .  A
C548       Br549   1.923       .  S
C553        H560   1.082       .  S
C553        C554   1.406       .  A
C553        C558   1.413       .  A
C554        C555   1.411       .  A
C555        C556   1.413       .  A
C555       Br562   1.919       .  S
C556        H561   1.078       .  S
C556        C557   1.425       .  A
C557        C558   1.434       .  A
C558       Br559   1.918       .  S
C563        H570   1.083   1_556  S
C563        C564   1.401       .  A
C563        C568   1.410       .  A
C564        C565   1.408       .  A
C565        C566   1.403       .  A
C565       Br572   1.921       .  S
C566        H571   1.077       .  S
C566        C567   1.419       .  A
C567        C568   1.438       .  A
C568       Br569   1.923       .  S
C573        H580   1.084   1_556  S
C573        C574   1.397       .  A
C573        C578   1.408       .  A
C574        C575   1.402       .  A
C575        C576   1.406       .  A
C575       Br582   1.920       .  S
C576        H581   1.077       .  S
C576        C577   1.426       .  A
C577        C578   1.436       .  A
C578       Br579   1.923       .  S
C583        H590   1.083       .  S
C583        C584   1.422       .  A
C583        C588   1.406       .  A
C584        C585   1.444       .  A
C585        C586   1.411       .  A
C585       Br592   1.927       .  S
C586        H591   1.084       .  S
C586        C587   1.399       .  A
C587        C588   1.410       .  A
C588       Br589   1.919       .  S
C593        H600   1.084       .  S
C593        C594   1.400       .  A
C593        C598   1.413       .  A
C594        C595   1.416       .  A
C595        C596   1.414       .  A
C595       Br602   1.921       .  S
C596        H601   1.080       .  S
C596        C597   1.417       .  A
C597        C598   1.439       .  A
C598       Br599   1.925       .  S
C603        H610   1.077       .  S
C603        C604   1.422       .  A
C603        C608   1.403   1_554  A
C604        C605   1.431       .  A
C605        C606   1.405       .  A
C605       Br612   1.916       .  S
C606        H611   1.083   1_545  S
C606        C607   1.401       .  A
C607        C608   1.407   1_554  A
C608       Br609   1.920       .  S
C613        H620   1.083   1_554  S
C613        C614   1.397       .  A
C613        C618   1.405       .  A
C614        C615   1.411       .  A
C615        C616   1.408       .  A
C615       Br622   1.921       .  S
C616        H621   1.078       .  S
C616        C617   1.420       .  A
C617        C618   1.439       .  A
C618       Br619   1.925       .  S
C623        H630   1.083       .  S
C623        C624   1.405       .  A
C623        C628   1.409       .  A
C624        C625   1.407   1_545  A
C625        C626   1.404   1_565  A
C625       Br632   1.922       .  S
C626        H631   1.075       .  S
C626        C627   1.424       .  A
C627        C628   1.432       .  A
C628       Br629   1.925       .  S
C633        H640   1.083       .  S
C633        C634   1.401       .  A
C633        C638   1.416       .  A
C634        C635   1.407       .  A
C635        C636   1.413       .  A
C635       Br642   1.919       .  S
C636        H641   1.075       .  S
C636        C637   1.426       .  A
C637        C638   1.439       .  A
C638       Br639   1.923       .  S
C643        H650   1.084   1_554  S
C643        C644   1.395       .  A
C643        C648   1.407       .  A
C644        C645   1.404       .  A
C645        C646   1.406       .  A
C645       Br652   1.919       .  S
C646        H651   1.079       .  S
C646        C647   1.424       .  A
C647        C648   1.435       .  A
C648       Br649   1.915       .  S
C653        H660   1.084   1_554  S
C653        C654   1.396       .  A
C653        C658   1.407       .  A
C654        C655   1.403       .  A
C655        C656   1.407       .  A
C655       Br662   1.919       .  S
C656        H661   1.076       .  S
C656        C657   1.424       .  A
C657        C658   1.438       .  A
C658       Br659   1.925       .  S
C663        H670   1.077       .  S
C663        C664   1.423       .  A
C663        C668   1.416   1_455  A
C664        C665   1.435       .  A
C665        C666   1.413       .  A
C665       Br672   1.912       .  S
C666        H671   1.084       .  S
C666        C667   1.404       .  A
C667        C668   1.417   1_455  A
C668       Br669   1.918       .  S
C673        H680   1.077       .  S
C673        C674   1.423       .  A
C673        C678   1.409       .  A
C674        C675   1.435       .  A
C675        C676   1.416       .  A
C675       Br682   1.922       .  S
C676        H681   1.083       .  S
C676        C677   1.407       .  A
C677        C678   1.413       .  A
C678       Br679   1.921       .  S
C683        H690   1.084   1_545  S
C683        C684   1.399       .  A
C683        C688   1.405       .  A
C684        C685   1.412       .  A
C685        C686   1.401       .  A
C685       Br692   1.921   1_455  S
C686        H691   1.082       .  S
C686        C687   1.420       .  A
C687        C688   1.438       .  A
C688       Br689   1.928   1_545  S
C693        H700   1.084       .  S
C693        C694   1.397       .  A
C693        C698   1.412       .  A
C694        C695   1.409       .  A
C695        C696   1.416       .  A
C695       Br702   1.916   1_455  S
C696        H701   1.081       .  S
C696        C697   1.422       .  A
C697        C698   1.444       .  A
C698       Br699   1.927       .  S
C703        H710   1.083   1_545  S
C703        C704   1.399       .  A
C703        C708   1.409       .  A
C704        C705   1.410       .  A
C705        C706   1.408       .  A
C705       Br712   1.920       .  S
C706        H711   1.077       .  S
C706        C707   1.421       .  A
C707        C708   1.438       .  A
C708       Br709   1.925       .  S
C713        H720   1.083       .  S
C713        C714   1.424       .  A
C713        C718   1.405       .  A
C714        C715   1.448       .  A
C715        C716   1.408       .  A
C715       Br722   1.931       .  S
C716        H721   1.084       .  S
C716        C717   1.393       .  A
C717        C718   1.401       .  A
C718       Br719   1.917   1_566  S
C723        H730   1.076       .  S
C723        C724   1.423       .  A
C723        C728   1.410       .  A
C724        C725   1.437       .  A
C725        C726   1.406       .  A
C725       Br732   1.920       .  S
C726        H731   1.082       .  S
C726        C727   1.399       .  A
C727        C728   1.411       .  A
C728       Br729   1.920   1_565  S
C733        H740   1.083       .  S
C733        C734   1.422       .  A
C733        C738   1.402       .  A
C734        C735   1.442       .  A
C735        C736   1.405       .  A
C735       Br742   1.926       .  S
C736        H741   1.084       .  S
C736        C737   1.396       .  A
C737        C738   1.408       .  A
C738       Br739   1.920       .  S
C743        H750   1.075       .  S
C743        C744   1.422       .  A
C743        C748   1.398       .  A
C744        C745   1.435       .  A
C745        C746   1.404       .  A
C745       Br752   1.918       .  S
C746        H751   1.083   1_556  S
C746        C747   1.399       .  A
C747        C748   1.404       .  A
C748       Br749   1.921   1_655  S
