geometry optimzed in LAMMPS
_audit_creation_date              2020-11-30 
_audit_creation_method            'lammps2cif' 
_symmetry_space_group_name_H-M    'P1' 
_symmetry_Int_Tables_number       1 
_symmetry_cell_setting            triclinic 
loop_ 
_symmetry_equiv_pos_as_xyz 
  x,y,z 
_cell_length_a                    36.36104581 
_cell_length_b                    36.241000530594235 
_cell_length_c                    36.3656159203298 
_cell_angle_alpha                 89.95934940507271 
_cell_angle_beta                  89.84430076681262 
_cell_angle_gamma                 90.04462190824849 
loop_ 
_atom_site_label 
_atom_site_type_symbol 
_atom_site_fract_x 
_atom_site_fract_y 
_atom_site_fract_z 
_atom_site_charge 
O1          O  0.93726528  0.99074003  0.94189391    -0.78700
C2          C  0.03147701  0.91810437  0.93226934     0.82400
O3          O  0.95566818  0.93193244  0.06197966    -0.79800
O4          O  0.08357091  0.96028904  0.03479494    -0.81300
O5          O  0.04091544  0.06880884  0.97750644    -0.81100
O6          O  0.95283332  0.04927892  0.95252197    -0.79700
Zn7        Zn  0.96958642  0.95837275  0.97289116     1.55700
O8          O  0.08170894  0.02342170  0.97068235    -0.81100
Cd9        Cd  0.99275820  0.04187582  0.99308239     1.59700
Cd10       Cd  0.99337703  0.97532391  0.05539124     1.59600
O11         O  0.97568493  0.06717675  0.04156066    -0.81100
O12         O  0.00235100  0.98786213  0.00223684    -1.91600
Cd13       Cd  0.05461533  0.97623352  0.98827296     1.59900
O14         O  0.97450019  0.02178169  0.08294748    -0.81000
O15         O  0.05779615  0.93540549  0.94772283    -0.79700
C16         C  0.93601991  0.91592498  0.03772515     0.82900
C17         C  0.93354472  0.02515993  0.93580582     0.82500
O18         O  0.99798726  0.92507227  0.93961918    -0.78600
C19         C  0.07339511  0.05759266  0.97027310     0.83300
O20         O  0.93813225  0.92455126  0.00384805    -0.78700
C21         C  0.97025975  0.05568110  0.07431308     0.83500
C22         C  0.07554752  0.95743234  0.06889377     0.83800
O23         O  0.04274757  0.96185513  0.08060431    -0.81200
O24         O  0.05848952  0.24075620  0.17897566    -0.78700
C25         C  0.07367244  0.18081712  0.28387024     0.82400
O26         O  0.94425020  0.18761467  0.19839324    -0.79800
O27         O  0.96400824  0.22166527  0.32817640    -0.81300
O28         O  0.02952426  0.32584279  0.27888815    -0.81100
O29         O  0.04826291  0.30045384  0.18953754    -0.79700
Zn30       Zn  0.03240791  0.21216186  0.21817250     1.55700
O31         O  0.02837606  0.28507570  0.32480414    -0.81100
Cd32       Cd  0.01085380  0.29692083  0.23320384     1.59700
Cd33       Cd  0.94895029  0.23117335  0.23559066     1.59600
O34         O  0.96196954  0.32280996  0.21779559    -0.81100
O35         O  0.00129968  0.24399317  0.24684217    -1.91600
Cd36       Cd  0.01194857  0.23585925  0.30048015     1.59900
O37         O  0.92134194  0.27682487  0.21571416    -0.81000
O38         O  0.05290576  0.19591766  0.30788452    -0.79700
C39         C  0.96966663  0.16714924  0.18545713     0.82900
C40         C  0.06299333  0.27459655  0.17078217     0.82500
O41         O  0.06953470  0.18638554  0.24958698    -0.78600
C42         C  0.03353222  0.31779133  0.31286369     0.83300
O43         O  0.00340161  0.17308779  0.19239377    -0.78700
C44         C  0.92942991  0.31089603  0.21211724     0.83500
C45         C  0.93079574  0.21727460  0.31779274     0.83800
O46         O  0.92182587  0.21820257  0.28394093    -0.81200
O47         O  0.75511217  0.19095451  0.57267681    -0.78700
C48         C  0.68603677  0.28578525  0.57318697     0.82400
O49         O  0.70093325  0.19921702  0.44938329    -0.79800
O50         O  0.72835827  0.32994909  0.47034674    -0.81300
O51         O  0.83562345  0.28417019  0.53101183    -0.81100
O52         O  0.81404596  0.19783527  0.55731824    -0.79700
Zn53       Zn  0.72480399  0.22043245  0.53774033     1.55700
O54         O  0.79422680  0.32946253  0.53251758    -0.81100
Cd55       Cd  0.80798757  0.23697976  0.51551622     1.59700
Cd56       Cd  0.74228837  0.23870573  0.45384066     1.59600
O57         O  0.83358704  0.22035861  0.46714225    -0.81100
O58         O  0.75515056  0.24977062  0.50625895    -1.91600
Cd59       Cd  0.74591148  0.30328127  0.51737191     1.59900
O60         O  0.78844092  0.22114819  0.42588214    -0.81000
O61         O  0.70573220  0.31033862  0.55760621    -0.79700
C62         C  0.68446730  0.18207531  0.47521952     0.82900
C63         C  0.78903015  0.18419600  0.57788634     0.82500
O64         O  0.69082324  0.25157457  0.56740215    -0.78600
C65         C  0.82721587  0.31801732  0.53565916     0.83300
O66         O  0.69227387  0.18739416  0.50885051    -0.78700
C67         C  0.82215973  0.21644663  0.43424023     0.83500
C68         C  0.72233310  0.31998376  0.43727025     0.83800
O69         O  0.72580533  0.28646791  0.42728043    -0.81200
O70         O  0.75409819  0.07166559  0.69526613    -0.78700
C71         C  0.68415674  0.97434961  0.68154629     0.82400
O72         O  0.69910221  0.05976203  0.81087569    -0.79800
O73         O  0.71894061  0.92829885  0.79366583    -0.81300
O74         O  0.82699930  0.96598339  0.72496642    -0.81100
O75         O  0.81233484  0.05665128  0.70651991    -0.79700
Zn76       Zn  0.72185079  0.03690211  0.72281204     1.55700
O77         O  0.78064875  0.92559033  0.72651717    -0.81100
Cd78       Cd  0.80404404  0.01426396  0.74463464     1.59700
Cd79       Cd  0.73951637  0.01946893  0.80697894     1.59600
O80         O  0.83189972  0.02603399  0.79337750    -0.81100
O81         O  0.75017621  0.00615368  0.75463645    -1.91600
Cd82       Cd  0.73495097  0.95388601  0.74487467     1.59900
O83         O  0.78682246  0.03608698  0.83371099    -0.81000
O84         O  0.69469411  0.94928461  0.70380947    -0.79700
C85         C  0.67975531  0.07362174  0.78519063     0.82900
C86         C  0.78839681  0.07647173  0.69026543     0.82500
O87         O  0.69380053  0.00780205  0.68569222    -0.78600
C88         C  0.81434015  0.93349004  0.72045215     0.83300
O89         O  0.68552671  0.06620198  0.75150416    -0.78700
C90         C  0.82091475  0.03380638  0.82584670     0.83500
C91         C  0.71641961  0.93939457  0.82690207     0.83800
O92         O  0.72248880  0.97295190  0.83563749    -0.81200
O93         O  0.19106022  0.00247396  0.18541806    -0.78700
C94         C  0.18433136  0.07154665  0.28537399     0.82400
O95         O  0.30716755  0.05960811  0.19497031    -0.79800
O96         O  0.29412333  0.03033681  0.32755073    -0.81300
O97         O  0.22905136  0.92413742  0.28573432    -0.81100
O98         O  0.20517948  0.94382264  0.19695742    -0.79700
Zn99       Zn  0.22011908  0.03343169  0.22014477     1.55700
O100        O  0.22667562  0.96863480  0.32783720    -0.81100
Cd101      Cd  0.24516310  0.95093544  0.23782767     1.59700
Cd102      Cd  0.30594262  0.01808045  0.23485232     1.59600
O103        O  0.29391263  0.92589213  0.22106844    -0.81100
O104        O  0.25404754  0.00459528  0.24851420    -1.91600
Cd105      Cd  0.24514248  0.01589740  0.30179646     1.59900
O106        O  0.33472343  0.97164055  0.21706088    -0.81000
O107        O  0.20607893  0.05756523  0.30903477    -0.79700
C108        C  0.28011025  0.07736383  0.18141969     0.82900
C109        C  0.18746276  0.96821405  0.17891271     0.82500
O110        O  0.18588053  0.06295363  0.25153490    -0.78600
C111        C  0.22296018  0.93485652  0.31859625     0.83300
O112        O  0.24703558  0.06968721  0.18965221    -0.78700
C113        C  0.32642450  0.93747619  0.21445692     0.83500
C114        C  0.32658792  0.03642939  0.31553539     0.83800
O115        O  0.33410744  0.03538703  0.28128270    -0.81200
O116        O  0.06929556  0.50619354  0.55604787    -0.78700
C117        C  0.07091639  0.57642294  0.46461781     0.82400
O118        O  0.94236536  0.55045081  0.54390900    -0.79800
O119        O  0.97127446  0.53155270  0.41391558    -0.81300
O120        O  0.03242344  0.42289110  0.45572864    -0.81100
O121        O  0.06234766  0.44658466  0.54284180    -0.79700
Zn122      Zn  0.03280066  0.53450069  0.52658019     1.55700
O123        O  0.03449566  0.46789842  0.41408214    -0.81100
Cd124      Cd  0.01952711  0.45008643  0.50462242     1.59700
Cd125      Cd  0.95164867  0.51043954  0.50343184     1.59600
O126        O  0.97433227  0.42181528  0.52421721    -0.81100
O127        O  0.00559844  0.50266098  0.49434632    -1.91600
Cd128      Cd  0.01830610  0.51498753  0.44199037     1.59900
O129        O  0.92747432  0.46113216  0.51985577    -0.81000
O130        O  0.05876158  0.55598359  0.43879704    -0.79700
C131        C  0.96549181  0.56685217  0.56456594     0.82900
C132        C  0.07848550  0.47260975  0.56008983     0.82500
O133        O  0.06163125  0.57149090  0.49798881    -0.78600
C134        C  0.03611907  0.43379845  0.42251884     0.83300
O135        O  0.99996548  0.56201793  0.56122236    -0.78700
C136        C  0.94012226  0.42895903  0.52644446     0.83500
C137        C  0.93713475  0.53257063  0.42226220     0.83800
O138        O  0.92585073  0.52548543  0.45476884    -0.81200
O139        O  0.44445628  0.32289614  0.75291145    -0.78700
C140        C  0.42998670  0.22406853  0.81516484     0.82400
O141        O  0.56287558  0.30855000  0.80334287    -0.79800
O142        O  0.53679511  0.17770521  0.78161631    -0.81300
O143        O  0.47789448  0.22170664  0.67070615    -0.81100
O144        O  0.45167206  0.31000849  0.69360208    -0.79700
Zn145      Zn  0.47388490  0.28782360  0.78258992     1.55700
O146        O  0.47856951  0.17717504  0.71273358    -0.81100
Cd147      Cd  0.49248917  0.26943367  0.69883905     1.59700
Cd148      Cd  0.55704043  0.26726946  0.76327756     1.59600
O149        O  0.54003367  0.28772460  0.67318050    -0.81100
O150        O  0.50379758  0.25743676  0.75160329    -1.91600
Cd151      Cd  0.49130813  0.20444950  0.76140309     1.59900
O152        O  0.58403718  0.28344122  0.71551650    -0.81000
O153        O  0.44796365  0.19885761  0.79861620    -0.79700
C154        C  0.53785951  0.32525548  0.82154238     0.82900
C155        C  0.43701385  0.32892011  0.71933656     0.82500
O156        O  0.43785628  0.25805107  0.81142694    -0.78600
C157        C  0.47501763  0.18774020  0.67944092     0.83300
O158        O  0.50391593  0.31864901  0.81652252    -0.78700
C159        C  0.57371555  0.29024798  0.68270136     0.83500
C160        C  0.57050541  0.18614514  0.78622803     0.83800
O161        O  0.58246090  0.21883023  0.78073303    -0.81200
O162        O  0.80829289  0.74560876  0.93084929    -0.78700
C163        C  0.72119730  0.82409694  0.93487796     0.82400
O164        O  0.80428725  0.79040930  0.05832961    -0.79800
O165        O  0.67256028  0.77975637  0.03528385    -0.81300
O166        O  0.70334056  0.66988459  0.97229844    -0.81100
O167        O  0.79062402  0.68708461  0.93885078    -0.79700
Zn168      Zn  0.78227525  0.77667964  0.96840521     1.55700
O169        O  0.66508793  0.71788174  0.97088586    -0.81100
Cd170      Cd  0.75482004  0.69275208  0.98361502     1.59700
Cd171      Cd  0.76106629  0.75328612  0.05014553     1.59600
O172        O  0.77503205  0.66263668  0.02815290    -0.81100
O173        O  0.74916114  0.74635564  0.99691349    -1.91600
Cd174      Cd  0.69725061  0.76234205  0.98689047     1.59900
O175        O  0.77513302  0.70361286  0.07360428    -0.81000
O176        O  0.69497901  0.80487297  0.94825572    -0.79700
C177        C  0.82456278  0.80667002  0.03466178     0.82900
C178        C  0.80940638  0.71164176  0.92197033     0.82500
O179        O  0.75475799  0.81663562  0.94148192    -0.78600
C180        C  0.67101092  0.68326461  0.96896938     0.83300
O181        O  0.81978716  0.80239492  0.00025382    -0.78700
C182        C  0.77995568  0.67087898  0.06194468     0.83500
C183        C  0.68230372  0.77939936  0.06897583     0.83800
O184        O  0.71476401  0.77029554  0.07833973    -0.81200
O185        O  0.30696835  0.25204457  0.92734338    -0.78700
C186        C  0.21231467  0.31603339  0.92082149     0.82400
O187        O  0.29358113  0.30208108  0.05143668    -0.79800
O188        O  0.16277043  0.27438857  0.02261796    -0.81300
O189        O  0.21550005  0.16656137  0.96600611    -0.81100
O190        O  0.30196463  0.19268591  0.94174408    -0.79700
Zn191      Zn  0.27558241  0.28077870  0.96166687     1.55700
O192        O  0.16911502  0.20664653  0.96295100    -0.81100
Cd193      Cd  0.26101209  0.19670945  0.98231616     1.59700
Cd194      Cd  0.25249304  0.26292518  0.04401468     1.59600
O195        O  0.27749021  0.17221330  0.03145474    -0.81100
O196        O  0.24547930  0.24921121  0.99114138    -1.91600
Cd197      Cd  0.19275211  0.25667949  0.97730554     1.59900
O198        O  0.26810637  0.21676744  0.07258090    -0.81000
O199        O  0.18783587  0.29495092  0.93471945    -0.79700
C200        C  0.31416326  0.31642168  0.02693210     0.82900
C201        C  0.31579335  0.21852819  0.92226852     0.82500
O202        O  0.24588338  0.31436694  0.93027553    -0.78600
C203        C  0.18156862  0.17382892  0.96071536     0.83300
O204        O  0.30938322  0.30998795  0.99291639    -0.78700
C205        C  0.27687733  0.18369193  0.06462824     0.83500
C206        C  0.17063256  0.28121402  0.05612059     0.83800
O207        O  0.20352742  0.27943861  0.06802524    -0.81200
O208        O  0.75422077  0.43507539  0.31653855    -0.78700
C209        C  0.81570021  0.42001573  0.21521856     0.82400
O210        O  0.80542426  0.55290791  0.29635928    -0.79800
O211        O  0.77451789  0.52460126  0.16703804    -0.81300
O212        O  0.66832482  0.46631943  0.21797270    -0.81100
O213        O  0.69465784  0.44375889  0.30527424    -0.79700
Zn214      Zn  0.78270802  0.46337860  0.27907775     1.55700
O215        O  0.70858072  0.46318814  0.17179719    -0.81100
Cd216      Cd  0.69846534  0.48292273  0.26337089     1.59700
Cd217      Cd  0.76270058  0.54698026  0.25753590     1.59600
O218        O  0.67320743  0.53137837  0.28002644    -0.81100
O219        O  0.75079160  0.49314712  0.24913124    -1.91600
Cd220      Cd  0.75828635  0.47868541  0.19618507     1.59900
O221        O  0.71553672  0.57562636  0.27479974    -0.81000
O222        O  0.79835951  0.43741940  0.19014958    -0.79700
C223        C  0.82511080  0.52798857  0.31155400     0.82900
C224        C  0.72053430  0.42898744  0.32371520     0.82500
O225        O  0.81118337  0.42725537  0.24910989    -0.78600
C226        C  0.67570256  0.46099540  0.18405901     0.83300
O227        O  0.81927730  0.49386232  0.30614950    -0.78700
C228        C  0.68261229  0.56527994  0.28173463     0.83500
C229        C  0.78032033  0.55843413  0.17428433     0.83800
O230        O  0.77804558  0.57071194  0.20721938    -0.81200
O231        O  0.43997772  0.93889713  0.49968635    -0.78700
C232        C  0.43480739  0.03299947  0.42995769     0.82400
O233        O  0.56271790  0.95196199  0.44487248    -0.79800
O234        O  0.53567229  0.08182777  0.47405290    -0.81300
O235        O  0.47930739  0.03753026  0.58162696    -0.81100
O236        O  0.45302277  0.94950591  0.55873181    -0.79700
Zn237      Zn  0.47374787  0.96945386  0.46903314     1.55700
O238        O  0.47226124  0.07890927  0.53696013    -0.81100
Cd239      Cd  0.49436458  0.98938834  0.55341354     1.59700
Cd240      Cd  0.55656943  0.99111861  0.48706744     1.59600
O241        O  0.54276818  0.97190849  0.57851916    -0.81100
O242        O  0.50352400  0.00036333  0.49979087    -1.91600
Cd243      Cd  0.48942945  0.05288175  0.48950362     1.59900
O244        O  0.58463653  0.97382513  0.53359376    -0.81000
O245        O  0.44939901  0.05855174  0.44900458    -0.79700
C246        C  0.53790340  0.93340608  0.42833675     0.82900
C247        C  0.43429088  0.93339934  0.53377622     0.82500
O248        O  0.44250835  0.99923296  0.43525785    -0.78600
C249        C  0.47178673  0.07024640  0.57094490     0.83300
O250        O  0.50397657  0.93705056  0.43611084    -0.78700
C251        C  0.57586805  0.96853606  0.56721510     0.83500
C252        C  0.56961255  0.07388194  0.47053314     0.83800
O253        O  0.58144151  0.04080768  0.47291459    -0.81200
O254        O  0.99235229  0.68547343  0.67745966    -0.78700
C255        C  0.05982354  0.78382691  0.67381820     0.82400
O256        O  0.04046801  0.69101281  0.79878412    -0.79800
O257        O  0.02239056  0.82419930  0.78379250    -0.81300
O258        O  0.91347914  0.78392564  0.71488143    -0.81100
O259        O  0.93331721  0.69578533  0.68989399    -0.79700
Zn260      Zn  0.02233413  0.71749217  0.71053907     1.55700
O261        O  0.95535082  0.82856252  0.72175975    -0.81100
Cd262      Cd  0.93908944  0.73584711  0.73052518     1.59700
Cd263      Cd  0.00131205  0.73266726  0.79492248     1.59600
O264        O  0.91059107  0.71809512  0.77687297    -0.81100
O265        O  0.99188252  0.74675765  0.74246669    -1.91600
Cd266      Cd  0.00376854  0.80068097  0.73482683     1.59900
O267        O  0.95295686  0.71593902  0.82070018    -0.81000
O268        O  0.04352384  0.80820365  0.69328514    -0.79700
C269        C  0.05803382  0.67459095  0.77322576     0.82900
C270        C  0.95845483  0.67899428  0.67210656     0.82500
O271        O  0.05398498  0.74948938  0.67849730    -0.78600
C272        C  0.92243645  0.81791913  0.71552759     0.83300
O273        O  0.05374412  0.68280127  0.73949269    -0.78700
C274        C  0.91974892  0.71209981  0.81018865     0.83500
C275        C  0.02621776  0.81162320  0.81636910     0.83800
O276        O  0.01975723  0.77788260  0.82402809    -0.81200
O277        O  0.44183129  0.81875348  0.25207341    -0.78700
C278        C  0.43212240  0.72216830  0.32408336     0.82400
O279        O  0.56182510  0.80145339  0.30286801    -0.79800
O280        O  0.53498821  0.66995032  0.27971151    -0.81300
O281        O  0.46850580  0.71222307  0.17501032    -0.81100
O282        O  0.44980828  0.80323645  0.19340048    -0.79700
Zn283      Zn  0.47155642  0.78403637  0.28275535     1.55700
O284        O  0.46671194  0.67046957  0.21967042    -0.81100
Cd285      Cd  0.48776783  0.76002038  0.19990847     1.59700
Cd286      Cd  0.55399526  0.76027247  0.26278285     1.59600
O287        O  0.53549332  0.77325968  0.17205787    -0.81100
O288        O  0.50016076  0.75083365  0.25289800    -1.91600
Cd289      Cd  0.48740245  0.69830923  0.26525302     1.59900
O290        O  0.57944312  0.77670858  0.21425101    -0.81000
O291        O  0.44832894  0.69592538  0.30723624    -0.79700
C292        C  0.53762446  0.82086872  0.31944801     0.82900
C293        C  0.43558172  0.82386492  0.21806826     0.82500
O294        O  0.43838376  0.75593024  0.31668601    -0.78600
C295        C  0.46191539  0.67949554  0.18608363     0.83300
O296        O  0.50346712  0.81626226  0.31373480    -0.78700
C297        C  0.56887146  0.77898860  0.18085424     0.83500
C298        C  0.56913484  0.67805139  0.28131147     0.83800
O299        O  0.58045301  0.71119209  0.27717483    -0.81200
O300        O  0.18346936  0.75498711  0.56341629    -0.78700
C301        C  0.18256875  0.68605545  0.46976696     0.82400
O302        O  0.30758489  0.70397086  0.55815738    -0.79800
O303        O  0.28844683  0.72758920  0.42485436    -0.81300
O304        O  0.22509946  0.83502725  0.46821660    -0.81100
O305        O  0.19644803  0.81435310  0.55508226    -0.79700
Zn306      Zn  0.21902426  0.72460071  0.53465591     1.55700
O307        O  0.22425926  0.79247529  0.42428437    -0.81100
Cd308      Cd  0.23939800  0.80814076  0.51645000     1.59700
Cd309      Cd  0.30287904  0.74304740  0.51617104     1.59600
O310        O  0.28705649  0.83428614  0.53413799    -0.81100
O311        O  0.25024388  0.75500095  0.50465836    -1.91600
Cd312      Cd  0.24046973  0.74454961  0.45117525     1.59900
O313        O  0.33024957  0.79087185  0.53121782    -0.81000
O314        O  0.19978693  0.70435133  0.44517377    -0.79700
C315        C  0.28210211  0.68891240  0.57709212     0.82900
C316        C  0.17706030  0.78886109  0.56975677     0.82500
O317        O  0.18836839  0.69088654  0.50390293    -0.78600
C318        C  0.22064937  0.82592792  0.43468044     0.83300
O319        O  0.24826003  0.69493748  0.57061540    -0.78700
C320        C  0.32059755  0.82418677  0.53694234     0.83500
C321        C  0.32113169  0.72130820  0.43588686     0.83800
O322        O  0.33000366  0.72454898  0.46964638    -0.81200
O323        O  0.31728930  0.44456099  0.75345006    -0.78700
C324        C  0.30848090  0.53573534  0.82766206     0.82400
O325        O  0.18954107  0.44552797  0.79488723    -0.79800
O326        O  0.20555098  0.57924797  0.77790590    -0.81300
O327        O  0.28190936  0.54386377  0.67515037    -0.81100
O328        O  0.30817882  0.45562743  0.69398473    -0.79700
Zn329      Zn  0.27879017  0.47162539  0.78185889     1.55700
O330        O  0.27624363  0.58468470  0.72068077    -0.81100
Cd331      Cd  0.26522305  0.49397519  0.69814235     1.59700
Cd332      Cd  0.19628643  0.48792764  0.75682803     1.59600
O333        O  0.22064145  0.47671926  0.66698965    -0.81100
O334        O  0.24929824  0.50215838  0.75055599    -1.91600
Cd335      Cd  0.25614969  0.55529677  0.76515164     1.59900
O336        O  0.17403028  0.47251964  0.70671505    -0.81000
O337        O  0.29220383  0.56107369  0.80961504    -0.79700
C338        C  0.21408002  0.42738703  0.81208703     0.82900
C339        C  0.32595133  0.43998295  0.71985912     0.82500
O340        O  0.30466605  0.50185660  0.81943261    -0.78600
C341        C  0.28400560  0.57681495  0.68734755     0.83300
O342        O  0.24817075  0.43444604  0.80866158    -0.78700
C343        C  0.18680714  0.47036722  0.67410324     0.83500
C344        C  0.17275311  0.56674492  0.77957469     0.83800
O345        O  0.16559950  0.53285264  0.77348695    -0.81200
O346        O  0.49547716  0.44235752  0.93408460    -0.78700
C347        C  0.42773962  0.42340927  0.03123878     0.82400
O348        O  0.43406473  0.55746919  0.95684876    -0.79800
O349        O  0.45860746  0.53063039  0.08431730    -0.81300
O350        O  0.57105615  0.47514314  0.04261833    -0.81100
O351        O  0.55309731  0.45037638  0.95312605    -0.79700
Zn352      Zn  0.46316812  0.46895373  0.97008820     1.55700
O353        O  0.52574297  0.47059213  0.08383340    -0.81100
Cd354      Cd  0.54459453  0.49036853  0.99407091     1.59700
Cd355      Cd  0.47715800  0.55203086  0.99455212     1.59600
O356        O  0.56856354  0.53986265  0.97755425    -0.81100
O357        O  0.49081509  0.49907150  0.00342987    -1.91600
Cd358      Cd  0.47839469  0.48537637  0.05562104     1.59900
O359        O  0.52289178  0.58101339  0.97643156    -0.81000
O360        O  0.44066147  0.44221270  0.05784526    -0.79700
C361        C  0.41694227  0.53211245  0.93962443     0.82900
C362        C  0.52977475  0.43600713  0.93118951     0.82500
O363        O  0.43510596  0.43110371  0.99791184    -0.78600
C364        C  0.55981943  0.46946263  0.07545092     0.83300
O365        O  0.42604113  0.49837292  0.94247735    -0.78700
C366        C  0.55674403  0.57262123  0.97225385     0.83500
C367        C  0.45572286  0.56476210  0.07648478     0.83800
O368        O  0.46165932  0.57647365  0.04386614    -0.81200
C369        C  0.33182200  0.54413888  0.85982238    -0.06300
C370        C  0.32618336  0.52229492  0.89117645    -0.17400
C371        C  0.35228249  0.52046024  0.91911050     0.10900
C372        C  0.38522447  0.54090179  0.91595596    -0.06200
C373        C  0.38965813  0.56527946  0.88621665    -0.17400
C374        C  0.36326418  0.56710778  0.85806074     0.10900
S375        S  0.34288040  0.48957638  0.95698689    -0.32400
S376        S  0.37366223  0.59515616  0.81851983    -0.32400
H377        H  0.33842389  0.61093214  0.81669536     0.29000
H378        H  0.36338532  0.50932329  0.98317656     0.28900
H379        H  0.30203939  0.50479876  0.89296505     0.19500
H380        H  0.41494530  0.58089619  0.88351818     0.19500
C381        C  0.29101846  0.66412909  0.60795968    -0.06300
C382        C  0.31041433  0.63132110  0.60134382    -0.17400
C383        C  0.31137268  0.60304281  0.62795666     0.10900
C384        C  0.29197085  0.60764329  0.66149098    -0.06200
C385        C  0.27580884  0.64204151  0.66908590    -0.17400
C386        C  0.27543777  0.67022174  0.64295327     0.10900
S387        S  0.33729630  0.56153747  0.61871441    -0.32400
S388        S  0.25332267  0.71302516  0.65540241    -0.32400
H389        H  0.27473229  0.73549093  0.63213397     0.29000
H390        H  0.35283009  0.57323776  0.58520282     0.28900
H391        H  0.32295965  0.62709524  0.57470872     0.19500
H392        H  0.26165104  0.64656539  0.69487440     0.19500
C393        C  0.45108785  0.65036347  0.15894506    -0.06300
C394        C  0.45246665  0.61311441  0.16989057    -0.17400
C395        C  0.45045107  0.58410361  0.14428993     0.10900
C396        C  0.44814069  0.59239187  0.10616984    -0.06200
C397        C  0.44283268  0.62940573  0.09581639    -0.17400
C398        C  0.44343214  0.65811383  0.12152051     0.10900
S399        S  0.45178251  0.53717340  0.16129849    -0.32400
S400        S  0.43452800  0.70383200  0.10416809    -0.32400
H401        H  0.41241870  0.71404303  0.13432410     0.29000
H402        H  0.45811767  0.54536494  0.19854551     0.28900
H403        H  0.45668241  0.60659497  0.19866125     0.19500
H404        H  0.43908304  0.63639823  0.06706999     0.19500
C405        C  0.35064839  0.71337438  0.40859544    -0.06300
C406        C  0.38642864  0.72558257  0.41686635    -0.17400
C407        C  0.41416262  0.72597506  0.39024594     0.10900
C408        C  0.40632999  0.71412787  0.35423311    -0.06200
C409        C  0.37159181  0.69935253  0.34633222    -0.17400
C410        C  0.34380886  0.69840180  0.37323382     0.10900
S411        S  0.45863177  0.74377890  0.40335804    -0.32400
S412        S  0.30043248  0.67799199  0.36058505    -0.32400
H413        H  0.29333950  0.66297583  0.39560003     0.29000
H414        H  0.47911605  0.72266640  0.37815929     0.28900
H415        H  0.39253387  0.73675036  0.44376913     0.19500
H416        H  0.36565204  0.68981838  0.31876574     0.19500
C417        C  0.08583764  0.79446370  0.64424492    -0.06300
C418        C  0.11791431  0.81441601  0.65270249    -0.17400
C419        C  0.14776519  0.81573302  0.62788759     0.10900
C420        C  0.14514344  0.79714130  0.59375328    -0.06200
C421        C  0.11175061  0.78027015  0.58429165    -0.17400
C422        C  0.08218458  0.77904146  0.60880989     0.10900
S423        S  0.18903933  0.83892822  0.64268012    -0.32400
S424        S  0.04096642  0.75571191  0.59384663    -0.32400
H425        H  0.01667330  0.77601113  0.61618446     0.29000
H426        H  0.21404007  0.81510151  0.62522903     0.28900
H427        H  0.12090777  0.82645497  0.67978842     0.19500
H428        H  0.10919850  0.76645994  0.55800274     0.19500
C429        C  0.14142258  0.59248656  0.78553035    -0.06300
C430        C  0.10759649  0.58356358  0.76900470    -0.17400
C431        C  0.07888819  0.60908232  0.76727639     0.10900
C432        C  0.08381277  0.64466320  0.78208304    -0.06200
C433        C  0.11624257  0.65288147  0.80114938    -0.17400
C434        C  0.14492855  0.62708091  0.80338227     0.10900
S435        S  0.03708137  0.59511276  0.74445550    -0.32400
S436        S  0.18511734  0.64020089  0.82913336    -0.32400
H437        H  0.19189907  0.60450441  0.84277087     0.29000
H438        H  0.01352541  0.61845835  0.76448098     0.28900
H439        H  0.10393625  0.55713275  0.75569531     0.19500
H440        H  0.11984904  0.67999402  0.81303622     0.19500
C441        C  0.54749429  0.90780956  0.39820701    -0.06300
C442        C  0.56206441  0.87293766  0.40664349    -0.17400
C443        C  0.56252284  0.84448082  0.38031574     0.10900
C444        C  0.54804881  0.85099318  0.34485126    -0.06200
C445        C  0.53570411  0.88657625  0.33595281    -0.17400
C446        C  0.53539402  0.91491822  0.36203137     0.10900
S447        S  0.57727808  0.79942666  0.39502212    -0.32400
S448        S  0.51640556  0.95880883  0.34826348    -0.32400
H449        H  0.53614463  0.98022303  0.37371041     0.29000
H450        H  0.59473551  0.79034357  0.36175928     0.28900
H451        H  0.57075074  0.86708843  0.43446893     0.19500
H452        H  0.52426687  0.89179063  0.30898449     0.19500
C453        C  0.40426559  0.90807237  0.54360605    -0.06300
C454        C  0.41282264  0.87205158  0.55443433    -0.17400
C455        C  0.38586016  0.84420105  0.55483742     0.10900
C456        C  0.34928967  0.85278960  0.54403404    -0.06200
C457        C  0.34063903  0.88972334  0.53577274    -0.17400
C458        C  0.36755752  0.91721269  0.53538081     0.10900
S459        S  0.39902585  0.79809940  0.56859284    -0.32400
S460        S  0.35388209  0.96314185  0.52186692    -0.32400
H461        H  0.38148592  0.98176698  0.54153901     0.29000
H462        H  0.43664332  0.80523977  0.57405891     0.28900
H463        H  0.44131942  0.86534004  0.56063836     0.19500
H464        H  0.31285760  0.89716506  0.52760812     0.19500
C465        C  0.58742274  0.46318567  0.10496301    -0.06300
C466        C  0.61963821  0.44324895  0.09696668    -0.17400
C467        C  0.64784052  0.43924302  0.12305169     0.10900
C468        C  0.64444973  0.45625549  0.15795184    -0.06200
C469        C  0.61132455  0.47432289  0.16650998    -0.17400
C470        C  0.58334646  0.47853743  0.14054902     0.10900
S471        S  0.68696316  0.41155110  0.11029850    -0.32400
S472        S  0.54509215  0.50725460  0.15378301    -0.32400
H473        H  0.54478291  0.52777577  0.12091376     0.29000
H474        H  0.69320031  0.39792584  0.14598702     0.28900
H475        H  0.62294925  0.43073780  0.07008765     0.19500
H476        H  0.60814719  0.48788737  0.19290436     0.19500
C477        C  0.65310847  0.59323635  0.28819545    -0.06300
C478        C  0.61784887  0.58492294  0.27479507    -0.17400
C479        C  0.59022453  0.61162265  0.27252775     0.10900
C480        C  0.59670842  0.64782330  0.28583344    -0.06200
C481        C  0.63138981  0.65571177  0.30117872    -0.17400
C482        C  0.65944132  0.62897649  0.30262141     0.10900
S483        S  0.54910705  0.59831387  0.24820657    -0.32400
S484        S  0.70237350  0.64216827  0.32349190    -0.32400
H485        H  0.70960543  0.60715284  0.33856360     0.29000
H486        H  0.54989114  0.62906219  0.22453041     0.28900
H487        H  0.61243170  0.55794546  0.26310118     0.19500
H488        H  0.63689720  0.68310408  0.31180441     0.19500
C489        C  0.20364405  0.39724678  0.83698737    -0.06300
C490        C  0.19283332  0.40613596  0.87295552    -0.17400
C491        C  0.19239961  0.37923561  0.90065816     0.10900
C492        C  0.20266208  0.34269608  0.89206769    -0.06200
C493        C  0.21144119  0.33347081  0.85565122    -0.17400
C494        C  0.21191312  0.36032315  0.82803629     0.10900
S495        S  0.18280727  0.39409004  0.94703555    -0.32400
S496        S  0.22616765  0.34650981  0.78252438    -0.32400
H497        H  0.20686883  0.37430749  0.76370936     0.29000
H498        H  0.16992352  0.35992003  0.96001336     0.28900
H499        H  0.18728311  0.43460237  0.88006267     0.19500
H500        H  0.22002528  0.30561367  0.84911193     0.19500
C501        C  0.34582373  0.33979522  0.03675783    -0.06300
C502        C  0.37829208  0.33384741  0.01675910    -0.17400
C503        C  0.40699013  0.35918205  0.01743601     0.10900
C504        C  0.40317467  0.39188805  0.03812683    -0.06200
C505        C  0.37222767  0.39640050  0.06090824    -0.17400
C506        C  0.34360295  0.37036513  0.06074934     0.10900
S507        S  0.44704217  0.34893327  0.98979766    -0.32400
S508        S  0.30352866  0.37964034  0.08833662    -0.32400
H509        H  0.30343371  0.34449813  0.10475512     0.29000
H510        H  0.47205494  0.36831432  0.01205995     0.28900
H511        H  0.38072551  0.30983363  0.99909962     0.19500
H512        H  0.36923753  0.42137957  0.07704137     0.19500
C513        C  0.63936565  0.65746029  0.96479096    -0.06300
C514        C  0.64502610  0.62339268  0.94717009    -0.17400
C515        C  0.61751389  0.59624898  0.94623577     0.10900
C516        C  0.58354339  0.60258088  0.96418598    -0.06200
C517        C  0.57693966  0.63752026  0.97949832    -0.17400
C518        C  0.60431924  0.66465906  0.98051197     0.10900
S519        S  0.62731136  0.55438402  0.92132176    -0.32400
S520        S  0.59355832  0.70613900  0.00573867    -0.32400
H521        H  0.62551037  0.70474391  0.02746925     0.29000
H522        H  0.59084683  0.54862380  0.90975987     0.28900
H523        H  0.67136176  0.61765452  0.93423724     0.19500
H524        H  0.55102935  0.64291382  0.99344025     0.19500
C525        C  0.65402437  0.78672161  0.09789969    -0.06300
C526        C  0.61683038  0.78614952  0.08747268    -0.17400
C527        C  0.58839214  0.78627098  0.11338599     0.10900
C528        C  0.59682191  0.78633114  0.15149036    -0.06200
C529        C  0.63394852  0.78984745  0.16184114    -0.17400
C530        C  0.66251976  0.79029609  0.13578063     0.10900
S531        S  0.54231702  0.78480791  0.09522174    -0.32400
S532        S  0.70936512  0.79488624  0.15193711    -0.32400
H533        H  0.70129252  0.80020586  0.18940535     0.29000
H534        H  0.53000135  0.81438456  0.11709604     0.28900
H535        H  0.60952844  0.78418287  0.05861270     0.19500
H536        H  0.64088979  0.79087877  0.19077984     0.19500
C537        C  0.78869203  0.64119334  0.08898164    -0.06300
C538        C  0.78066573  0.60449374  0.07959298    -0.17400
C539        C  0.78078594  0.57627657  0.10592258     0.10900
C540        C  0.78780739  0.58478383  0.14345566    -0.06200
C541        C  0.79887068  0.62092524  0.15211707    -0.17400
C542        C  0.80036012  0.64873666  0.12539005     0.10900
S543        S  0.76958662  0.53075075  0.08942996    -0.32400
S544        S  0.81754756  0.69308175  0.13988022    -0.32400
H545        H  0.83642171  0.70010145  0.10675015     0.29000
H546        H  0.80152134  0.51480440  0.10438676     0.28900
H547        H  0.77268641  0.59777048  0.05170995     0.19500
H548        H  0.80597297  0.62789729  0.18018256     0.19500
C549        C  0.83422544  0.70128032  0.89167183    -0.06300
C550        C  0.87002202  0.69029852  0.90041325    -0.17400
C551        C  0.89811371  0.69034195  0.87380432     0.10900
C552        C  0.89038817  0.70306105  0.83766613    -0.06200
C553        C  0.85353872  0.71070619  0.82847956    -0.17400
C554        C  0.82550231  0.70957551  0.85488853     0.10900
S555        S  0.94337528  0.67451719  0.88691848    -0.32400
S556        S  0.77941806  0.72094493  0.84057318    -0.32400
H557        H  0.76141274  0.70137244  0.86876775     0.29000
H558        H  0.93382264  0.66146716  0.92211551     0.28900
H559        H  0.87642055  0.68358836  0.92888929     0.19500
H560        H  0.84652031  0.71939754  0.80067593     0.19500
C561        C  0.54693773  0.35503254  0.84763540    -0.06300
C562        C  0.53516619  0.39062533  0.83818869    -0.17400
C563        C  0.53266823  0.41861438  0.86447708     0.10900
C564        C  0.54182275  0.41104150  0.90141541    -0.06200
C565        C  0.55617356  0.37622549  0.91047201    -0.17400
C566        C  0.55884504  0.34811266  0.88395563     0.10900
S567        S  0.51525741  0.46279472  0.84967148    -0.32400
S568        S  0.57339316  0.30307696  0.89910720    -0.32400
H569        H  0.58863776  0.29205093  0.86535499     0.29000
H570        H  0.53297259  0.48365416  0.87701438     0.28900
H571        H  0.52574096  0.39609580  0.81041728     0.19500
H572        H  0.56284838  0.37005748  0.93889043     0.19500
C573        C  0.46590523  0.10042850  0.59829711    -0.06300
C574        C  0.47586040  0.13635860  0.58760564    -0.17400
C575        C  0.47783326  0.16544395  0.61272358     0.10900
C576        C  0.46893044  0.15930112  0.65024234    -0.06200
C577        C  0.45694486  0.12375624  0.66061161    -0.17400
C578        C  0.45509513  0.09454442  0.63527107     0.10900
S579        S  0.49576654  0.20840809  0.59525030    -0.32400
S580        S  0.43857327  0.05072277  0.65196913    -0.32400
H581        H  0.41973670  0.04169391  0.61943177     0.29000
H582        H  0.46312823  0.22777074  0.60307253     0.28900
H583        H  0.48418711  0.14171653  0.55942150     0.19500
H584        H  0.44936938  0.11837502  0.68905056     0.19500
C585        C  0.39822903  0.21471759  0.83852805    -0.06300
C586        C  0.40346019  0.19410732  0.87078614    -0.17400
C587        C  0.37560780  0.19174917  0.89756342     0.10900
C588        C  0.34220931  0.21094386  0.89221829    -0.06200
C589        C  0.33638655  0.22938254  0.85876832    -0.17400
C590        C  0.36370599  0.23106693  0.83182122     0.10900
S591        S  0.38575572  0.16766075  0.93957843    -0.32400
S592        S  0.35347033  0.25601118  0.79006005    -0.32400
H593        H  0.37749599  0.23584403  0.76732483     0.29000
H594        H  0.35314791  0.14680665  0.93884090     0.28900
H595        H  0.42997120  0.18163516  0.87609946     0.19500
H596        H  0.31074712  0.24388711  0.85417809     0.19500
C597        C  0.41132344  0.35953074  0.71161752    -0.06300
C598        C  0.41706921  0.39241486  0.73110539    -0.17400
C599        C  0.39096433  0.42054345  0.73126654     0.10900
C600        C  0.35772735  0.41590932  0.71185373    -0.06200
C601        C  0.35306201  0.38441330  0.68980259    -0.17400
C602        C  0.37938457  0.35594450  0.68976308     0.10900
S603        S  0.40113818  0.46122618  0.75800774    -0.32400
S604        S  0.36898513  0.31471186  0.66413099    -0.32400
H605        H  0.38241876  0.28993315  0.69065205     0.29000
H606        H  0.38010347  0.48556459  0.73647597     0.28900
H607        H  0.44173580  0.39574116  0.74747431     0.19500
H608        H  0.32756299  0.38061414  0.67493933     0.19500
C609        C  0.10896788  0.46470689  0.58548909    -0.06300
C610        C  0.10177501  0.44501385  0.61792637    -0.17400
C611        C  0.12744264  0.44439404  0.64685200     0.10900
C612        C  0.16114697  0.46374537  0.64299925    -0.06200
C613        C  0.16909235  0.48106620  0.60929985    -0.17400
C614        C  0.14347430  0.48189086  0.58077937     0.10900
S615        S  0.11643841  0.41931228  0.68843939    -0.32400
S616        S  0.15575239  0.50702144  0.53964013    -0.32400
H617        H  0.13344800  0.48648876  0.51562165     0.29000
H618        H  0.08317950  0.40386202  0.67612218     0.28900
H619        H  0.07520876  0.43202744  0.62138054     0.19500
H620        H  0.19472967  0.49587265  0.60570530     0.19500
C621        C  0.90971247  0.53902987  0.39251669    -0.06300
C622        C  0.91829949  0.52649607  0.35693198    -0.17400
C623        C  0.89180894  0.52551653  0.32912197     0.10900
C624        C  0.85566923  0.53770320  0.33646854    -0.06200
C625        C  0.84756336  0.55277641  0.37106092    -0.17400
C626        C  0.87414144  0.55361447  0.39919132     0.10900
S627        S  0.90529026  0.50655535  0.28523516    -0.32400
S628        S  0.86204749  0.57299369  0.44337591    -0.32400
H629        H  0.82674168  0.58541527  0.43365153     0.29000
H630        H  0.87973916  0.52666473  0.26429115     0.28900
H631        H  0.94539217  0.51556987  0.35109747     0.19500
H632        H  0.81973112  0.56185773  0.37667004     0.19500
C633        C  0.09670284  0.60680180  0.45682831    -0.06300
C634        C  0.13193756  0.59856166  0.44323195    -0.17400
C635        C  0.16028584  0.62489715  0.44438336     0.10900
C636        C  0.15319004  0.66006117  0.45955540    -0.06200
C637        C  0.11745239  0.66877485  0.47116361    -0.17400
C638        C  0.08917514  0.64276520  0.46964733     0.10900
S639        S  0.20566549  0.61062197  0.43039357    -0.32400
S640        S  0.04443961  0.65647270  0.48637169    -0.32400
H641        H  0.02433611  0.63187511  0.46425631     0.29000
H642        H  0.21582986  0.64469467  0.41502812     0.28900
H643        H  0.13805410  0.57080584  0.43401375     0.19500
H644        H  0.11186797  0.69568040  0.48292608     0.19500
C645        C  0.94917676  0.64999092  0.64547312    -0.06300
C646        C  0.95473556  0.61334170  0.65649019    -0.17400
C647        C  0.95684673  0.58481603  0.63068353     0.10900
C648        C  0.95298544  0.59296576  0.59292278    -0.06200
C649        C  0.94496026  0.62923984  0.58209431    -0.17400
C650        C  0.94324864  0.65789814  0.60793751     0.10900
S651        S  0.96783508  0.53925262  0.64738683    -0.32400
S652        S  0.93794199  0.70430439  0.59079698    -0.32400
H653        H  0.92327940  0.71943474  0.62320535     0.29000
H654        H  0.95318510  0.51981564  0.61734958     0.28900
H655        H  0.95997062  0.60725460  0.68519614     0.19500
H656        H  0.94284821  0.63576653  0.55310181     0.19500
C657        C  0.35681061  0.04221004  0.34246340    -0.06300
C658        C  0.34875830  0.05837622  0.37680315    -0.17400
C659        C  0.37442984  0.05801844  0.40560634     0.10900
C660        C  0.40910656  0.04151804  0.39991626    -0.06200
C661        C  0.41801402  0.02760757  0.36512610    -0.17400
C662        C  0.39250286  0.02761133  0.33638493     0.10900
S663        S  0.36033508  0.07671608  0.44939293    -0.32400
S664        S  0.40520882  0.00508945  0.29377526    -0.32400
H665        H  0.44233564  0.99840320  0.30224774     0.29000
H666        H  0.37915721  0.05100721  0.47132373     0.28900
H667        H  0.32172556  0.06974003  0.38180825     0.19500
H668        H  0.44461952  0.01488788  0.36114157     0.19500
C669        C  0.28601421  0.10745890  0.15490961    -0.06300
C670        C  0.30560733  0.10027199  0.12242385    -0.17400
C671        C  0.30432838  0.12491375  0.09250430     0.10900
C672        C  0.28351369  0.15780709  0.09562166    -0.06200
C673        C  0.26589220  0.16568324  0.12919524    -0.17400
C674        C  0.26681438  0.14106268  0.15858156     0.10900
S675        S  0.32891999  0.11362687  0.05075950    -0.32400
S676        S  0.24153429  0.15361953  0.19956548    -0.32400
H677        H  0.26395921  0.13399211  0.22422409     0.29000
H678        H  0.34285300  0.07940008  0.06248370     0.28900
H679        H  0.32006697  0.07431541  0.11977884     0.19500
H680        H  0.24984859  0.19063399  0.13227630     0.19500
C681        C  0.21337777  0.85504616  0.40639674    -0.06300
C682        C  0.20682445  0.84413850  0.36979368    -0.17400
C683        C  0.20623180  0.86972267  0.34082897     0.10900
C684        C  0.21410631  0.90735418  0.34792183    -0.06200
C685        C  0.21753417  0.91858758  0.38474349    -0.17400
C686        C  0.21652811  0.89337977  0.41381326     0.10900
S687        S  0.19511499  0.85226300  0.29579613    -0.32400
S688        S  0.22112263  0.91260823  0.45926420    -0.32400
H689        H  0.18977437  0.89420814  0.47282155     0.29000
H690        H  0.17305832  0.88271891  0.28634595     0.28900
H691        H  0.20270429  0.81522370  0.36339400     0.19500
H692        H  0.22233943  0.94738987  0.39121224     0.19500
C693        C  0.35619899  0.91018729  0.20682865    -0.06300
C694        C  0.39173350  0.91809274  0.21976405    -0.17400
C695        C  0.41918863  0.89110465  0.22057448     0.10900
C696        C  0.41138172  0.85505430  0.20809911    -0.06200
C697        C  0.37718335  0.84788286  0.19187348    -0.17400
C698        C  0.34947055  0.87505094  0.19103900     0.10900
S699        S  0.46319806  0.90381779  0.23966556    -0.32400
S700        S  0.30569327  0.86427451  0.17020673    -0.32400
H701        H  0.31475621  0.82847713  0.15833493     0.29000
H702        H  0.48387840  0.87768010  0.21989794     0.28900
H703        H  0.39773927  0.94503572  0.23136272     0.19500
H704        H  0.37144477  0.82027788  0.18197720     0.19500
C705        C  0.83997657  0.90295665  0.71167332    -0.06300
C706        C  0.83178987  0.86826948  0.72676946    -0.17400
C707        C  0.85789616  0.84020525  0.72786979     0.10900
C708        C  0.89298882  0.84584132  0.71182392    -0.06200
C709        C  0.90052005  0.87973224  0.69452659    -0.17400
C710        C  0.87433307  0.90818141  0.69397962     0.10900
S711        S  0.84575579  0.79977648  0.75430554    -0.32400
S712        S  0.88641744  0.95018734  0.67021257    -0.32400
H713        H  0.85042060  0.95792775  0.65836772     0.29000
H714        H  0.87867215  0.79940823  0.77459407     0.28900
H715        H  0.80585328  0.86381694  0.74079323     0.19500
H716        H  0.92705716  0.88422199  0.68174842     0.19500
C717        C  0.64951075  0.09898672  0.79376392    -0.06300
C718        C  0.65733947  0.13277563  0.81078425    -0.17400
C719        C  0.63120717  0.16123036  0.81151562     0.10900
C720        C  0.59661986  0.15582946  0.79447826    -0.06200
C721        C  0.58807375  0.12072993  0.78038835    -0.17400
C722        C  0.61397031  0.09243360  0.77986723     0.10900
S723        S  0.64393255  0.20364422  0.83397510    -0.32400
S724        S  0.60056077  0.04914595  0.75924349    -0.32400
H725        H  0.62502938  0.02699745  0.77942905     0.29000
H726        H  0.60821858  0.21168405  0.84663311     0.28900
H727        H  0.68456972  0.13770006  0.82189226     0.19500
H728        H  0.56162184  0.11571381  0.76763163     0.19500
C729        C  0.60580114  0.96226552  0.59435110    -0.06300
C730        C  0.63954362  0.98007092  0.58803584    -0.17400
C731        C  0.66665494  0.98167600  0.61507972     0.10900
C732        C  0.66016439  0.96549620  0.64988184    -0.06200
C733        C  0.62793643  0.94477477  0.65527846    -0.17400
C734        C  0.60068463  0.94287849  0.62780862     0.10900
S735        S  0.70867676  0.00576236  0.60371015    -0.32400
S736        S  0.55969188  0.91581409  0.63576986    -0.32400
H737        H  0.57081681  0.90025201  0.66939644     0.29000
H738        H  0.73145621  0.98427475  0.62644804     0.28900
H739        H  0.64432539  0.99452787  0.56228769     0.19500
H740        H  0.62323092  0.93179604  0.68176503     0.19500
C741        C  0.71311878  0.85585633  0.91077354    -0.06300
C742        C  0.69431086  0.84990643  0.87768330    -0.17400
C743        C  0.69196559  0.87772584  0.85089870     0.10900
C744        C  0.70963629  0.91207688  0.85680688    -0.06200
C745        C  0.72561557  0.91879371  0.89136630    -0.17400
C746        C  0.72735937  0.89127846  0.91830035     0.10900
S747        S  0.66597430  0.86762540  0.81000842    -0.32400
S748        S  0.74894367  0.90283569  0.96141559    -0.32400
H749        H  0.72895324  0.87747962  0.98290456     0.29000
H750        H  0.65286209  0.90387691  0.80553287     0.28900
H751        H  0.68253814  0.82306151  0.87210172     0.19500
H752        H  0.73841348  0.94513268  0.89699450     0.19500
C753        C  0.65388648  0.15675493  0.46741131    -0.06300
C754        C  0.62098951  0.16334686  0.48635116    -0.17400
C755        C  0.59259929  0.13757094  0.48657642     0.10900
C756        C  0.59651553  0.10428330  0.46654278    -0.06200
C757        C  0.62860738  0.09874454  0.44552929    -0.17400
C758        C  0.65739282  0.12460161  0.44581944     0.10900
S759        S  0.55402408  0.14766463  0.51616787    -0.32400
S760        S  0.69830950  0.11396038  0.41981930    -0.32400
H761        H  0.72335513  0.12965723  0.44468406     0.29000
H762        H  0.55492347  0.11329804  0.53420787     0.28900
H763        H  0.61819241  0.18805825  0.50290700     0.19500
H764        H  0.63188384  0.07350618  0.42998943     0.19500
C765        C  0.85753727  0.34494303  0.54101115    -0.06300
C766        C  0.89190223  0.33601593  0.52575532    -0.17400
C767        C  0.91995722  0.36207121  0.52268309     0.10900
C768        C  0.91392156  0.39867395  0.53492363    -0.06200
C769        C  0.88032505  0.40712592  0.55220278    -0.17400
C770        C  0.85245135  0.38061460  0.55602414     0.10900
S771        S  0.96100933  0.34756664  0.49889882    -0.32400
S772        S  0.81142765  0.39400588  0.58051240    -0.32400
H773        H  0.80543610  0.35901139  0.59624294     0.29000
H774        H  0.98332377  0.35267219  0.53005397     0.28900
H775        H  0.89649430  0.30884666  0.51401137     0.19500
H776        H  0.87553390  0.43485843  0.56250707     0.19500
C777        C  0.71229028  0.40418343  0.35461462    -0.06300
C778        C  0.69841518  0.36888984  0.34723010    -0.17400
C779        C  0.69914165  0.34103592  0.37420855     0.10900
C780        C  0.71401743  0.34891227  0.40939967    -0.06200
C781        C  0.72505295  0.38530889  0.41722374    -0.17400
C782        C  0.72442703  0.41277396  0.39032329     0.10900
S783        S  0.68128920  0.29589189  0.36282873    -0.32400
S784        S  0.74147588  0.45787481  0.40268117    -0.32400
H785        H  0.72035410  0.47755659  0.37694391     0.29000
H786        H  0.67688759  0.30203689  0.32489664     0.28900
H787        H  0.68897207  0.36271284  0.31984746     0.19500
H788        H  0.73609467  0.39217052  0.44386953     0.19500
C789        C  0.65619316  0.29630537  0.59829323    -0.06300
C790        C  0.66502362  0.30833611  0.63375019    -0.17400
C791        C  0.63822260  0.30937116  0.66167937     0.10900
C792        C  0.60174230  0.29794798  0.65374353    -0.06200
C793        C  0.59266288  0.28911077  0.61719135    -0.17400
C794        C  0.61937448  0.28804851  0.58960181     0.10900
S795        S  0.65133695  0.32486694  0.70704005    -0.32400
S796        S  0.60521151  0.27354053  0.54429409    -0.32400
H797        H  0.63336765  0.29188708  0.52498267     0.29000
H798        H  0.68920357  0.32872317  0.69999882     0.28900
H799        H  0.69343097  0.31488636  0.63999284     0.19500
H800        H  0.56489071  0.28073876  0.61026219     0.19500
C801        C  0.79848742  0.16076136  0.60960871    -0.06300
C802        C  0.81754830  0.12751257  0.60419887    -0.09400
C803        C  0.81833428  0.10040030  0.63185979     0.10900
C804        C  0.79925655  0.10660448  0.66522482    -0.06200
C805        C  0.78307889  0.14110372  0.67150836    -0.17400
C806        C  0.78295700  0.16830611  0.64442041     0.10900
S807        S  0.83977844  0.05689864  0.62134942    -0.32400
S808        S  0.76055218  0.21143298  0.65518352    -0.32400
H809        H  0.78197884  0.23309432  0.63117865     0.29000
H810        H  0.85777866  0.05406916  0.65537938     0.28900
H811        H  0.82961269  0.12157632  0.57753821     0.19500
H812        H  0.76867559  0.14622796  0.69717946     0.19500
C813        C  0.15741006  0.09983560  0.29614698    -0.06300
C814        C  0.16717094  0.13680931  0.29027205    -0.17400
C815        C  0.14048824  0.16460788  0.28960295     0.10900
C816        C  0.10314974  0.15537856  0.29505587    -0.06200
C817        C  0.09366490  0.11877435  0.30342829    -0.17400
C818        C  0.12039274  0.09087617  0.30387960     0.10900
S819        S  0.15537348  0.21080378  0.27853906    -0.32400
S820        S  0.10501621  0.04401966  0.31057594    -0.32400
H821        H  0.13867934  0.03019103  0.32352484     0.29000
H822        H  0.12584704  0.22898288  0.29578401     0.28900
H823        H  0.19541014  0.14372987  0.28372125     0.19500
H824        H  0.06501332  0.11142516  0.30690984     0.19500
C825        C  0.84147798  0.39001390  0.20598523    -0.06300
C826        C  0.87527460  0.39843517  0.18918711    -0.17400
C827        C  0.90402484  0.37247992  0.18824927     0.10900
C828        C  0.89899480  0.33736169  0.20476929    -0.06200
C829        C  0.86414479  0.32845409  0.21909484    -0.17400
C830        C  0.83566705  0.35422545  0.22005087     0.10900
S831        S  0.94635898  0.38610072  0.16619847    -0.32400
S832        S  0.79315890  0.34047779  0.24188607    -0.32400
H833        H  0.77039115  0.36434109  0.22164920     0.29000
H834        H  0.95466666  0.35066612  0.15274875     0.28900
H835        H  0.87993728  0.42594188  0.17839042     0.19500
H836        H  0.85946682  0.30175712  0.23166208     0.19500
C837        C  0.08622022  0.28324519  0.13860096    -0.06300
C838        C  0.11752006  0.30534581  0.14324927    -0.17400
C839        C  0.14441042  0.30788766  0.11560580     0.10900
C840        C  0.14014835  0.28753930  0.08262264    -0.06200
C841        C  0.10727069  0.26794755  0.07704885    -0.17400
C842        C  0.08037683  0.26567823  0.10445642     0.10900
S843        S  0.18361404  0.33701769  0.12437002    -0.32400
S844        S  0.03974397  0.23879837  0.09465289    -0.32400
H845        H  0.01609470  0.25883129  0.11789906     0.29000
H846        H  0.18890107  0.34717540  0.08737329     0.28900
H847        H  0.12191745  0.31934441  0.16925556     0.19500
H848        H  0.10322525  0.25246125  0.05182011     0.19500
C849        C  0.04096956  0.34819704  0.33947301    -0.06300
C850        C  0.02787779  0.38353826  0.33060516    -0.17400
C851        C  0.02668671  0.41192524  0.35659791     0.10900
C852        C  0.04009984  0.40579232  0.39270725    -0.06200
C853        C  0.05504062  0.37097879  0.40105872    -0.17400
C854        C  0.05602547  0.34244650  0.37492423     0.10900
S855        S  0.00406468  0.45383486  0.34242877    -0.32400
S856        S  0.07740403  0.29971663  0.38848850    -0.32400
H857        H  0.09261785  0.29241417  0.35361545     0.29000
H858        H  0.97980494  0.45416236  0.37267129     0.28900
H859        H  0.01589777  0.38855154  0.30381275     0.19500
H860        H  0.06589079  0.36580298  0.42830461     0.19500
C861        C  0.90158538  0.21296111  0.34612485    -0.06300
C862        C  0.91057437  0.19755715  0.38045641    -0.17400
C863        C  0.88481749  0.19588334  0.40922450     0.10900
C864        C  0.84891097  0.21001936  0.40386905    -0.06200
C865        C  0.83954173  0.22365833  0.36893660    -0.17400
C866        C  0.86540435  0.22630480  0.34064938     0.10900
S867        S  0.89972409  0.17543425  0.45183559    -0.32400
S868        S  0.85118460  0.25118316  0.30011910    -0.32400
H869        H  0.88222836  0.27442781  0.29974614     0.29000
H870        H  0.86580100  0.15823521  0.45932247     0.28900
H871        H  0.93807288  0.18708915  0.38512142     0.19500
H872        H  0.81251462  0.23529044  0.36429385     0.19500
C873        C  0.85304010  0.83316536  0.04652772    -0.06300
C874        C  0.89019498  0.82262410  0.04582387    -0.17400
C875        C  0.91835463  0.84916412  0.04766972     0.10900
C876        C  0.90922098  0.88707244  0.04826631    -0.06200
C877        C  0.87218467  0.89729876  0.05134985    -0.17400
C878        C  0.84416482  0.87075112  0.05139041     0.10900
S879        S  0.96527967  0.83325017  0.04694554    -0.32400
S880        S  0.79733928  0.88680541  0.05406900    -0.32400
H881        H  0.78379937  0.85593891  0.07318915     0.29000
H882        H  0.97982222  0.86346597  0.06628127     0.28900
H883        H  0.89728018  0.79381430  0.04233583     0.19500
H884        H  0.86492452  0.92625522  0.05188062     0.19500
C885        C  0.10272649  0.08527578  0.96325310    -0.06300
C886        C  0.09411182  0.11802933  0.94440016    -0.17400
C887        C  0.12013473  0.14638805  0.94012647     0.10900
C888        C  0.15553939  0.14253275  0.95582189    -0.06200
C889        C  0.16466393  0.10888892  0.97268564    -0.17400
C890        C  0.13878434  0.08074790  0.97713505     0.10900
S891        S  0.10651413  0.18639578  0.91403579    -0.32400
S892        S  0.15279576  0.04164851  0.00439990    -0.32400
H893        H  0.12104493  0.04175244  0.02663352     0.29000
H894        H  0.14165633  0.19286085  0.89903867     0.28900
H895        H  0.06684139  0.12165416  0.93307253     0.19500
H896        H  0.19142563  0.10538690  0.98520316     0.19500
C897        C  0.03878969  0.88828216  0.90570762    -0.06300
C898        C  0.05537315  0.89648399  0.87178858    -0.17400
C899        C  0.05402517  0.87109905  0.84243025     0.10900
C900        C  0.03529712  0.83709096  0.84718159    -0.06200
C901        C  0.02170897  0.82804753  0.88228480    -0.17400
C902        C  0.02350976  0.85299627  0.91139075     0.10900
S903        S  0.07636737  0.88244647  0.79944656    -0.32400
S904        S  0.00433119  0.83875390  0.95493861    -0.32400
H905        H  0.02750306  0.86082365  0.97670023     0.29000
H906        H  0.08879101  0.91773678  0.80966966     0.28900
H907        H  0.06755144  0.92337995  0.86779008     0.19500
H908        H  0.00798698  0.80193448  0.88686534     0.19500
C909        C  0.10596112  0.95240446  0.09578705    -0.06300
C910        C  0.14049586  0.96738601  0.08673785    -0.17400
C911        C  0.16850764  0.97020018  0.11278488     0.10900
C912        C  0.16239116  0.95753392  0.14896391    -0.06200
C913        C  0.12912419  0.93986594  0.15752801    -0.17400
C914        C  0.10078881  0.93707588  0.13131045     0.10900
S915        S  0.21090890  0.99199168  0.09859947    -0.32400
S916        S  0.05839419  0.91410845  0.14370951    -0.32400
H917        H  0.06915777  0.90293770  0.17913348     0.29000
H918        H  0.23356947  0.97366289  0.12400755     0.28900
H919        H  0.14524477  0.97877730  0.05965708     0.19500
H920        H  0.12467274  0.93010785  0.18530040     0.19500
C921        C  0.90455556  0.03631761  0.90976656    -0.06300
C922        C  0.86856044  0.02595132  0.91864189    -0.17400
C923        C  0.84069220  0.02607204  0.89232574     0.10900
C924        C  0.84843549  0.03775918  0.85584959    -0.06200
C925        C  0.88424387  0.05013661  0.84750989    -0.17400
C926        C  0.91224016  0.04977647  0.87410725     0.10900
S927        S  0.79731133  0.00648816  0.90646609    -0.32400
S928        S  0.95775905  0.06355831  0.86003063    -0.32400
H929        H  0.96654518  0.08118400  0.89324430     0.29000
H930        H  0.79609553  0.98129516  0.87704201     0.28900
H931        H  0.86268134  0.01505312  0.94579327     0.19500
H932        H  0.89075549  0.05915794  0.81985321     0.19500
C933        C  0.96087334  0.13626527  0.16066101    -0.06300
C934        C  0.94567263  0.14414213  0.12615619    -0.17400
C935        C  0.94614576  0.11781803  0.09771402     0.10900
C936        C  0.96206867  0.08267618  0.10414271    -0.06200
C937        C  0.97425099  0.07413028  0.13983786    -0.17400
C938        C  0.97388016  0.10038564  0.16792935     0.10900
S939        S  0.92706571  0.12994780  0.05348231    -0.32400
S940        S  0.99211433  0.08702869  0.21208267    -0.32400
H941        H  0.97121692  0.11225435  0.23278537     0.29000
H942        H  0.91298903  0.16461695  0.06368493     0.28900
H943        H  0.93569314  0.17180689  0.12078591     0.19500
H944        H  0.98611663  0.04728080  0.14559893     0.19500
loop_ 
_geom_bond_atom_site_label_1 
_geom_bond_atom_site_label_2 
_geom_bond_distance 
_geom_bond_site_symmetry_2 
_ccdc_geom_bond_type 
O1           C17   1.274   1_565  A
O1           Zn7   2.009       .  S
C2           O18   1.272   1_455  A
C2           O15   1.276       .  A
C2          C897   1.474       .  S
O3           C16   1.276       .  A
O3          Cd10   2.099       .  S
O4           C22   1.277       .  A
O4          Cd13   2.077   1_554  S
O5           C19   1.276       .  A
O5           Cd9   2.081   1_455  S
O6           C17   1.276       .  A
O6           Cd9   2.090       .  S
Zn7          O18   1.996       .  S
Zn7          O20   2.017   1_556  S
Zn7          O12   1.925   1_656  S
O8           C19   1.275       .  A
O8          Cd13   2.073   1_545  S
Cd9          O11   2.081   1_556  S
Cd9          O12   2.016   1_646  S
Cd10         O14   2.076   1_565  S
Cd10         O23   2.076   1_655  S
Cd10         O12   2.011   1_655  S
O11          C21   1.276       .  A
O12         Cd13   2.011   1_554  S
Cd13         O15   2.093       .  S
O14          C21   1.277       .  A
C16          O20   1.273       .  A
C16         C876   1.478       .  S
C17         C921   1.475       .  S
C19         C885   1.485       .  S
C21         C936   1.491       .  S
C22          O23   1.276       .  A
C22         C909   1.489       .  S
O24          C40   1.272       .  A
O24         Zn30   1.999       .  S
C25          O41   1.272       .  A
C25          O38   1.277       .  A
C25         C816   1.472       .  S
O26          C39   1.275       .  A
O26         Cd33   2.087       .  S
O27          C45   1.276       .  A
O27         Cd36   2.075   1_655  S
O28          C42   1.278       .  A
O28         Cd32   2.080       .  S
O29          C40   1.277       .  A
O29         Cd32   2.092       .  S
Zn30         O41   2.002       .  S
Zn30         O43   2.000       .  S
Zn30         O35   1.922       .  S
O31          C42   1.276       .  A
O31         Cd36   2.079       .  S
Cd32         O34   2.088   1_455  S
Cd32         O35   2.011       .  S
Cd33         O37   2.067       .  S
Cd33         O46   2.067       .  S
Cd33         O35   2.002   1_655  S
O34          C44   1.277       .  A
O35         Cd36   2.011       .  S
Cd36         O38   2.095       .  S
O37          C44   1.276       .  A
C39          O43   1.271   1_655  A
C39         C933   1.473       .  S
C40         C837   1.475       .  S
C42         C849   1.492       .  S
C44         C828   1.490       .  S
C45          O46   1.275       .  A
C45         C861   1.486       .  S
O47          C63   1.272       .  A
O47         Zn53   1.994       .  S
C48          O64   1.270       .  A
C48          O61   1.274       .  A
C48         C789   1.467       .  S
O49          C62   1.274       .  A
O49         Cd56   2.082       .  S
O50          C68   1.276       .  A
O50         Cd59   2.066       .  S
O51          C65   1.276       .  A
O51         Cd55   2.063       .  S
O52          C63   1.275       .  A
O52         Cd55   2.091       .  S
Zn53         O64   1.990       .  S
Zn53         O66   1.986       .  S
Zn53         O58   1.910       .  S
O54          C65   1.275       .  A
O54         Cd59   2.072       .  S
Cd55         O57   2.078       .  S
Cd55         O58   2.006       .  S
Cd56         O60   2.061       .  S
Cd56         O69   2.071       .  S
Cd56         O58   2.005       .  S
O57          C67   1.276       .  A
O58         Cd59   2.010       .  S
Cd59         O61   2.081       .  S
O60          C67   1.275       .  A
C62          O66   1.271       .  A
C62         C753   1.470       .  S
C63         C801   1.474       .  S
C65         C765   1.485       .  S
C67         C864   1.488       .  S
C68          O69   1.274       .  A
C68         C780   1.489       .  S
O70          C86   1.272       .  A
O70         Zn76   1.989       .  S
C71          O87   1.271   1_565  A
C71          O84   1.276       .  A
C71         C732   1.482       .  S
O72          C85   1.274       .  A
O72         Cd79   2.077       .  S
O73          C91   1.277       .  A
O73         Cd82   2.083       .  S
O74          C88   1.275       .  A
O74         Cd78   2.067   1_565  S
O75          C86   1.275       .  A
O75         Cd78   2.089       .  S
Zn76         O87   1.996       .  S
Zn76         O89   1.989       .  S
Zn76         O81   1.910       .  S
O77          C88   1.276       .  A
O77         Cd82   2.063       .  S
Cd78         O80   2.088       .  S
Cd78         O81   2.013       .  S
Cd79         O83   2.068       .  S
Cd79         O92   2.075   1_545  S
Cd79         O81   2.001       .  S
O80          C90   1.277       .  A
O81         Cd82   2.005   1_545  S
Cd82         O84   2.101       .  S
O83          C90   1.274       .  A
C85          O89   1.271       .  A
C85         C717   1.467       .  S
C86         C804   1.474       .  S
C88         C705   1.482       .  S
C90         C924   1.489       .  S
C91          O92   1.276       .  A
C91         C744   1.490       .  S
O93         C109   1.271   1_545  A
O93         Zn99   1.994       .  S
C94         O110   1.271       .  A
C94         O107   1.275       .  A
C94         C813   1.471       .  S
O95         C108   1.276       .  A
O95        Cd102   2.090       .  S
O96         C114   1.277       .  A
O96        Cd105   2.081       .  S
O97         C111   1.276       .  A
O97        Cd101   2.077       .  S
O98         C109   1.276       .  A
O98        Cd101   2.098       .  S
Zn99        O110   1.998       .  S
Zn99        O112   1.976       .  S
Zn99        O104   1.920       .  S
O100        C111   1.277       .  A
O100       Cd105   2.067   1_565  S
Cd101       O103   2.082       .  S
Cd101       O104   2.009   1_565  S
Cd102       O106   2.085   1_545  S
Cd102       O115   2.074       .  S
Cd102       O104   2.010       .  S
O103        C113   1.276       .  A
O104       Cd105   2.006       .  S
Cd105       O107   2.090       .  S
O106        C113   1.278       .  A
C108        O112   1.269       .  A
C108        C669   1.470       .  S
C109        C912   1.474       .  S
C111        C684   1.493       .  S
C113        C693   1.492       .  S
C114        O115   1.275       .  A
C114        C657   1.489       .  S
O116        C132   1.271       .  A
O116       Zn122   1.992       .  S
C117        O133   1.271       .  A
C117        O130   1.276       .  A
C117        C633   1.472       .  S
O118        C131   1.276       .  A
O118       Cd125   2.094       .  S
O119        C137   1.278       .  A
O119       Cd128   2.083   1_655  S
O120        C134   1.277       .  A
O120       Cd124   2.086       .  S
O121        C132   1.276       .  A
O121       Cd124   2.094       .  S
Zn122       O133   1.992       .  S
Zn122       O135   2.001   1_455  S
Zn122       O127   1.921       .  S
O123        C134   1.275       .  A
O123       Cd128   2.071       .  S
Cd124       O126   2.061   1_455  S
Cd124       O127   2.007       .  S
Cd125       O129   2.077       .  S
Cd125       O138   2.078       .  S
Cd125       O127   2.009   1_655  S
O126        C136   1.273       .  A
O127       Cd128   2.008       .  S
Cd128       O130   2.093       .  S
O129        C136   1.277       .  A
C131        O135   1.271       .  A
C131        C648   1.472       .  S
C132        C609   1.473       .  S
C134        C852   1.492       .  S
C136        C768   1.484       .  S
C137        O138   1.276       .  A
C137        C621   1.492       .  S
O139        C155   1.270       .  A
O139       Zn145   1.983       .  S
C140        O156   1.271       .  A
C140        O153   1.274       .  A
C140        C585   1.471       .  S
O141        C154   1.277       .  A
O141       Cd148   2.100       .  S
O142        C160   1.275       .  A
O142       Cd151   2.055       .  S
O143        C157   1.275       .  A
O143       Cd147   2.079       .  S
O144        C155   1.276       .  A
O144       Cd147   2.099       .  S
Zn145       O156   1.992       .  S
Zn145       O158   1.993       .  S
Zn145       O150   1.914       .  S
O146        C157   1.276       .  A
O146       Cd151   2.081       .  S
Cd147       O149   2.071       .  S
Cd147       O150   2.011       .  S
Cd148       O152   2.077       .  S
Cd148       O161   2.084       .  S
Cd148       O150   2.015       .  S
O149        C159   1.277       .  A
O150       Cd151   2.004       .  S
Cd151       O153   2.084       .  S
O152        C159   1.276       .  A
C154        O158   1.271       .  A
C154        C561   1.475       .  S
C155        C597   1.478       .  S
C157        C576   1.497       .  S
C159        C792   1.490       .  S
C160        O161   1.277       .  A
C160        C720   1.484       .  S
O162        C178   1.274       .  A
O162       Zn168   2.006       .  S
C163        O179   1.274       .  A
C163        O176   1.275       .  A
C163        C741   1.476       .  S
O164        C177   1.275       .  A
O164       Cd171   2.090       .  S
O165        C183   1.276       .  A
O165       Cd174   2.072   1_554  S
O166        C180   1.278       .  A
O166       Cd170   2.089       .  S
O167        C178   1.277       .  A
O167       Cd170   2.092       .  S
Zn168       O179   2.015       .  S
Zn168       O181   2.020   1_556  S
Zn168       O173   1.929       .  S
O169        C180   1.275       .  A
O169       Cd174   2.075       .  S
Cd170       O172   2.088   1_556  S
Cd170       O173   2.013       .  S
Cd171       O175   2.057       .  S
Cd171       O184   2.064       .  S
Cd171       O173   2.001   1_554  S
O172        C182   1.278       .  A
O173       Cd174   2.009       .  S
Cd174       O176   2.087       .  S
O175        C182   1.272       .  A
C177        O181   1.273       .  A
C177        C873   1.477       .  S
C178        C549   1.471       .  S
C180        C513   1.490       .  S
C182        C537   1.492       .  S
C183        O184   1.273       .  A
C183        C525   1.493       .  S
O185        C201   1.270       .  A
O185       Zn191   1.985       .  S
C186        O202   1.270       .  A
C186        O199   1.276       .  A
C186        C492   1.467       .  S
O187        C200   1.273       .  A
O187       Cd194   2.078       .  S
O188        C206   1.277       .  A
O188       Cd197   2.076   1_554  S
O189        C203   1.277       .  A
O189       Cd193   2.071       .  S
O190        C201   1.276       .  A
O190       Cd193   2.099       .  S
Zn191       O202   1.989       .  S
Zn191       O204   1.982       .  S
Zn191       O196   1.909       .  S
O192        C203   1.276       .  A
O192       Cd197   2.074       .  S
Cd193       O195   2.084   1_556  S
Cd193       O196   2.011       .  S
Cd194       O198   2.050       .  S
Cd194       O207   2.070       .  S
Cd194       O196   2.003   1_554  S
O195        C205   1.277       .  A
O196       Cd197   2.002       .  S
Cd197       O199   2.086       .  S
O198        C205   1.274       .  A
C200        O204   1.271   1_554  A
C200        C501   1.474       .  S
C201        C588   1.479       .  S
C203        C888   1.488       .  S
C205        C672   1.486       .  S
C206        O207   1.275       .  A
C206        C840   1.485       .  S
O208        C224   1.271       .  A
O208       Zn214   1.992       .  S
C209        O225   1.271       .  A
C209        O222   1.276       .  A
C209        C825   1.474       .  S
O210        C223   1.279       .  A
O210       Cd217   2.113       .  S
O211        C229   1.272       .  A
O211       Cd220   2.058       .  S
O212        C226   1.276       .  A
O212       Cd216   2.073       .  S
O213        C224   1.275       .  A
O213       Cd216   2.086       .  S
Zn214       O225   1.993       .  S
Zn214       O227   1.991       .  S
Zn214       O219   1.925       .  S
O215        C226   1.277       .  A
O215       Cd220   2.092       .  S
Cd216       O218   2.072       .  S
Cd216       O219   2.005       .  S
Cd217       O221   2.100       .  S
Cd217       O230   2.095       .  S
Cd217       O219   2.022       .  S
O218        C228   1.277       .  A
O219       Cd220   2.014       .  S
Cd220       O222   2.100       .  S
O221        C228   1.279       .  A
C223        O227   1.270       .  A
C223        C624   1.478       .  S
C224        C777   1.469       .  S
C226        C468   1.493       .  S
C228        C477   1.494       .  S
C229        O230   1.280       .  A
C229        C540   1.496       .  S
O231        C247   1.272       .  A
O231       Zn237   1.991       .  S
C232        O248   1.270   1_545  A
C232        O245   1.273       .  A
C232        C660   1.472       .  S
O233        C246   1.277       .  A
O233       Cd240   2.102       .  S
O234        C252   1.274       .  A
O234       Cd243   2.058       .  S
O235        C249   1.277       .  A
O235       Cd239   2.097   1_545  S
O236        C247   1.277       .  A
O236       Cd239   2.093       .  S
Zn237       O248   1.993       .  S
Zn237       O250   2.004       .  S
Zn237       O242   1.920   1_565  S
O238        C249   1.275       .  A
O238       Cd243   2.063       .  S
Cd239       O241   2.084       .  S
Cd239       O242   2.017   1_565  S
Cd240       O244   2.075       .  S
Cd240       O253   2.078   1_565  S
Cd240       O242   2.011   1_565  S
O241        C251   1.277       .  A
O242       Cd243   2.007       .  S
Cd243       O245   2.084       .  S
O244        C251   1.277       .  A
C246        O250   1.272       .  A
C246        C441   1.477       .  S
C247        C453   1.469       .  S
C249        C573   1.494       .  S
C251        C729   1.489       .  S
C252        O253   1.277       .  A
C252        C756   1.480       .  S
O254        C270   1.270       .  A
O254       Zn260   1.997   1_655  S
C255        O271   1.273       .  A
C255        O268   1.278       .  A
C255        C417   1.481       .  S
O256        C269   1.274       .  A
O256       Cd263   2.081       .  S
O257        C275   1.277       .  A
O257       Cd266   2.089       .  S
O258        C272   1.274       .  A
O258       Cd262   2.057       .  S
O259        C270   1.274       .  A
O259       Cd262   2.083       .  S
Zn260       O271   2.004       .  S
Zn260       O273   2.000       .  S
Zn260       O265   1.922   1_455  S
O261        C272   1.278       .  A
O261       Cd266   2.086   1_655  S
Cd262       O264   2.078       .  S
Cd262       O265   2.008       .  S
Cd263       O267   2.080   1_455  S
Cd263       O276   2.064       .  S
Cd263       O265   2.005   1_455  S
O264        C274   1.276       .  A
O265       Cd266   2.020   1_655  S
Cd266       O268   2.105       .  S
O267        C274   1.275       .  A
C269        O273   1.272       .  A
C269        C432   1.470       .  S
C270        C645   1.469       .  S
C272        C708   1.480       .  S
C274        C552   1.496       .  S
C275        O276   1.275       .  A
C275        C900   1.490       .  S
O277        C293   1.271       .  A
O277       Zn283   2.001       .  S
C278        O294   1.273       .  A
C278        O291   1.275       .  A
C278        C408   1.470       .  S
O279        C292   1.277       .  A
O279       Cd286   2.107       .  S
O280        C298   1.277       .  A
O280       Cd289   2.082       .  S
O281        C295   1.275       .  A
O281       Cd285   2.077       .  S
O282        C293   1.277       .  A
O282       Cd285   2.102       .  S
Zn283       O294   2.001       .  S
Zn283       O296   1.997       .  S
Zn283       O288   1.925       .  S
O284        C295   1.277       .  A
O284       Cd289   2.083       .  S
Cd285       O287   2.063       .  S
Cd285       O288   2.008       .  S
Cd286       O290   2.077       .  S
Cd286       O299   2.090       .  S
Cd286       O288   2.020       .  S
O287        C297   1.273       .  A
O288       Cd289   2.009       .  S
Cd289       O291   2.084       .  S
O290        C297   1.278       .  A
C292        O296   1.271       .  A
C292        C444   1.480       .  S
C293        C696   1.479       .  S
C295        C393   1.499       .  S
C297        C528   1.496       .  S
C298        O299   1.278       .  A
C298        C480   1.495       .  S
O300        C316   1.271       .  A
O300       Zn306   1.994       .  S
C301        O317   1.272       .  A
C301        O314   1.276       .  A
C301        C636   1.472       .  S
O302        C315   1.275       .  A
O302       Cd309   2.089       .  S
O303        C321   1.276       .  A
O303       Cd312   2.081       .  S
O304        C318   1.274       .  A
O304       Cd308   2.074       .  S
O305        C316   1.277       .  A
O305       Cd308   2.110       .  S
Zn306       O317   1.998       .  S
Zn306       O319   2.001       .  S
Zn306       O311   1.919       .  S
O307        C318   1.277       .  A
O307       Cd312   2.079       .  S
Cd308       O310   2.078       .  S
Cd308       O311   2.012       .  S
Cd309       O313   2.073       .  S
Cd309       O322   2.068       .  S
Cd309       O311   2.008       .  S
O310        C320   1.278       .  A
O311       Cd312   2.014       .  S
Cd312       O314   2.087       .  S
O313        C320   1.275       .  A
C315        O319   1.273       .  A
C315        C381   1.474       .  S
C316        C420   1.481       .  S
C318        C681   1.497       .  S
C320        C456   1.493       .  S
C321        O322   1.276       .  A
C321        C405   1.488       .  S
O323        C339   1.272       .  A
O323       Zn329   1.996       .  S
C324        O340   1.272       .  A
C324        O337   1.275       .  A
C324        C369   1.479       .  S
O325        C338   1.274       .  A
O325       Cd332   2.081       .  S
O326        C344   1.277       .  A
O326       Cd335   2.086       .  S
O327        C341   1.276       .  A
O327       Cd331   2.081       .  S
O328        C339   1.276       .  A
O328       Cd331   2.097       .  S
Zn329       O340   1.990       .  S
Zn329       O342   1.999       .  S
Zn329       O334   1.918       .  S
O330        C341   1.276       .  A
O330       Cd335   2.067       .  S
Cd331       O333   2.076       .  S
Cd331       O334   2.013       .  S
Cd332       O336   2.073       .  S
Cd332       O345   2.065       .  S
Cd332       O334   2.007       .  S
O333        C343   1.277       .  A
O334       Cd335   2.013       .  S
Cd335       O337   2.095       .  S
O336        C343   1.275       .  A
C338        O342   1.271       .  A
C338        C489   1.467       .  S
C339        C600   1.477       .  S
C341        C384   1.488       .  S
C343        C612   1.488       .  S
C344        O345   1.275       .  A
C344        C429   1.488       .  S
O346        C362   1.272       .  A
O346       Zn352   2.005       .  S
C347        O363   1.271   1_554  A
C347        O360   1.274       .  A
C347        C504   1.470       .  S
O348        C361   1.275       .  A
O348       Cd355   2.094       .  S
O349        C367   1.274       .  A
O349       Cd358   2.073       .  S
O350        C364   1.277       .  A
O350       Cd354   2.087   1_554  S
O351        C362   1.277       .  A
O351       Cd354   2.101       .  S
Zn352       O363   1.984       .  S
Zn352       O365   1.994       .  S
Zn352       O357   1.918   1_556  S
O353        C364   1.276       .  A
O353       Cd358   2.077       .  S
Cd354       O356   2.081       .  S
Cd354       O357   2.009   1_556  S
Cd355       O359   2.072       .  S
Cd355       O368   2.077   1_556  S
Cd355       O357   2.009   1_556  S
O356        C366   1.278       .  A
O357       Cd358   2.012       .  S
Cd358       O360   2.081       .  S
O359        C366   1.277       .  A
C361        O365   1.271       .  A
C361        C372   1.476       .  S
C362        C564   1.477       .  S
C364        C465   1.489       .  S
C366        C516   1.487       .  S
C367        O368   1.277       .  A
C367        C396   1.498       .  S
C369        C370   1.402       .  A
C369        C374   1.415       .  A
C370        C371   1.394       .  A
C370        H379   1.084       .  S
C371        C372   1.412       .  A
C371        S375   1.806       .  S
C372        C373   1.405       .  A
C373        C374   1.407       .  A
C373        H380   1.084       .  S
C374        S376   1.800       .  S
S375        H378   1.407       .  S
S376        H377   1.405       .  S
C381        C382   1.403       .  A
C381        C386   1.409       .  A
C382        C383   1.410       .  A
C382        H391   1.081       .  S
C383        C384   1.417       .  A
C383        S387   1.807       .  S
C384        C385   1.406       .  A
C385        C386   1.395       .  A
C385        H392   1.081       .  S
C386        S388   1.805       .  S
S387        H390   1.407       .  S
S388        H389   1.407       .  S
C393        C394   1.408       .  A
C393        C398   1.418       .  A
C394        C395   1.407       .  A
C394        H403   1.084       .  S
C395        C396   1.421       .  A
C395        S399   1.810       .  S
C396        C397   1.407       .  A
C397        C398   1.399       .  A
C397        H404   1.084       .  S
C398        S400   1.802       .  S
S399        H402   1.406       .  S
S400        H401   1.408       .  S
C405        C406   1.407       .  A
C405        C410   1.419       .  A
C406        C407   1.396       .  A
C406        H415   1.083       .  S
C407        C408   1.408       .  A
C407        S411   1.806       .  S
C408        C409   1.402       .  A
C409        C410   1.405       .  A
C409        H416   1.083       .  S
C410        S412   1.802       .  S
S411        H414   1.406       .  S
S412        H413   1.408       .  S
C417        C418   1.407       .  A
C417        C422   1.412       .  A
C418        C419   1.410       .  A
C418        H427   1.083       .  S
C419        C420   1.416       .  A
C419        S423   1.803       .  S
C420        C421   1.403       .  A
C421        C422   1.395       .  A
C421        H428   1.084       .  S
C422        S424   1.806       .  S
S423        H426   1.405       .  S
S424        H425   1.407       .  S
C429        C430   1.408       .  A
C429        C434   1.418       .  A
C430        C431   1.397       .  A
C430        H439   1.082       .  S
C431        C432   1.409       .  A
C431        S435   1.806       .  S
C432        C433   1.401       .  A
C433        C434   1.404       .  A
C433        H440   1.082       .  S
C434        S436   1.802       .  S
S435        H438   1.407       .  S
S436        H437   1.407       .  S
C441        C442   1.405       .  A
C441        C446   1.412       .  A
C442        C443   1.408       .  A
C442        H451   1.082       .  S
C443        C444   1.414       .  A
C443        S447   1.800       .  S
C444        C445   1.404       .  A
C445        C446   1.399       .  A
C445        H452   1.083       .  S
C446        S448   1.806       .  S
S447        H450   1.404       .  S
S448        H449   1.406       .  S
C453        C454   1.399       .  A
C453        C458   1.408       .  A
C454        C455   1.407       .  A
C454        H463   1.089       .  S
C455        C456   1.422       .  A
C455        S459   1.809       .  S
C456        C457   1.408       .  A
C457        C458   1.396       .  A
C457        H464   1.088       .  S
C458        S460   1.806       .  S
S459        H462   1.407       .  S
S460        H461   1.407       .  S
C465        C466   1.407       .  A
C465        C470   1.416       .  A
C466        C467   1.406       .  A
C466        H475   1.084       .  S
C467        C468   1.417       .  A
C467        S471   1.801       .  S
C468        C469   1.406       .  A
C469        C470   1.398       .  A
C469        H476   1.085       .  S
C470        S472   1.802       .  S
S471        H474   1.407       .  S
S472        H473   1.407       .  S
C477        C478   1.405       .  A
C477        C482   1.417       .  A
C478        C479   1.398       .  A
C478        H487   1.085       .  S
C479        C480   1.418       .  A
C479        S483   1.805       .  S
C480        C481   1.410       .  A
C481        C482   1.408       .  A
C481        H488   1.084       .  S
C482        S484   1.802       .  S
S483        H486   1.408       .  S
S484        H485   1.407       .  S
C489        C490   1.403       .  A
C489        C494   1.410       .  A
C490        C491   1.401       .  A
C490        H499   1.083       .  S
C491        C492   1.411       .  A
C491        S495   1.804       .  S
C492        C493   1.402       .  A
C493        C494   1.398       .  A
C493        H500   1.083       .  S
C494        S496   1.804       .  S
S495        H498   1.405       .  S
S496        H497   1.406       .  S
C501        C502   1.402       .  A
C501        C506   1.413       .  A
C502        C503   1.390       .  A
C502        H511   1.085   1_554  S
C503        C504   1.411       .  A
C503        S507   1.806   1_554  S
C504        C505   1.405       .  A
C505        C506   1.404       .  A
C505        H512   1.084       .  S
C506        S508   1.799       .  S
S507        H510   1.407   1_556  S
S508        H509   1.406       .  S
C513        C514   1.406       .  A
C513        C518   1.420       .  A
C514        C515   1.403       .  A
C514        H523   1.086       .  S
C515        C516   1.414       .  A
C515        S519   1.803       .  S
C516        C517   1.404       .  A
C517        C518   1.399       .  A
C517        H524   1.087       .  S
C518        S520   1.804   1_556  S
S519        H522   1.408       .  S
S520        H521   1.408       .  S
C525        C526   1.406       .  A
C525        C530   1.419       .  A
C526        C527   1.397       .  A
C526        H535   1.086       .  S
C527        C528   1.420       .  A
C527        S531   1.803       .  S
C528        C529   1.408       .  A
C529        C530   1.404       .  A
C529        H536   1.084       .  S
C530        S532   1.811       .  S
S531        H534   1.408       .  S
S532        H533   1.406       .  S
C537        C538   1.404       .  A
C537        C542   1.418       .  A
C538        C539   1.400       .  A
C538        H547   1.083       .  S
C539        C540   1.423       .  A
C539        S543   1.803       .  S
C540        C541   1.406       .  A
C541        C542   1.401       .  A
C541        H548   1.083       .  S
C542        S544   1.803       .  S
S543        H546   1.408       .  S
S544        H545   1.408       .  S
C549        C550   1.399       .  A
C549        C554   1.408       .  A
C550        C551   1.405       .  A
C550        H559   1.089       .  S
C551        C552   1.421       .  A
C551        S555   1.808       .  S
C552        C553   1.409       .  A
C553        C554   1.399       .  A
C553        H560   1.090       .  S
C554        S556   1.804       .  S
S555        H558   1.407       .  S
S556        H557   1.406       .  S
C561        C562   1.402       .  A
C561        C566   1.413       .  A
C562        C563   1.397       .  A
C562        H571   1.086       .  S
C563        C564   1.412       .  A
C563        S567   1.805       .  S
C564        C565   1.405       .  A
C565        C566   1.407       .  A
C565        H572   1.085       .  S
C566        S568   1.802       .  S
S567        H570   1.407       .  S
S568        H569   1.404       .  S
C573        C574   1.406       .  A
C573        C578   1.416       .  A
C574        C575   1.397       .  A
C574        H583   1.085       .  S
C575        C576   1.419       .  A
C575        S579   1.802       .  S
C576        C577   1.410       .  A
C577        C578   1.406       .  A
C577        H584   1.087       .  S
C578        S580   1.802       .  S
S579        H582   1.408       .  S
S580        H581   1.407       .  S
C585        C586   1.404       .  A
C585        C590   1.410       .  A
C586        C587   1.406       .  A
C586        H595   1.083       .  S
C587        C588   1.414       .  A
C587        S591   1.798       .  S
C588        C589   1.404       .  A
C589        C590   1.395       .  A
C589        H596   1.084       .  S
C590        S592   1.807       .  S
S591        H594   1.406       .  S
S592        H593   1.407       .  S
C597        C598   1.403       .  A
C597        C602   1.415       .  A
C598        C599   1.393       .  A
C598        H607   1.085       .  S
C599        C600   1.411       .  A
C599        S603   1.805       .  S
C600        C601   1.406       .  A
C601        C602   1.408       .  A
C601        H608   1.083       .  S
C602        S604   1.802       .  S
S603        H606   1.407       .  S
S604        H605   1.406       .  S
C609        C610   1.402       .  A
C609        C614   1.410       .  A
C610        C611   1.408       .  A
C610        H619   1.081       .  S
C611        C612   1.418       .  A
C611        S615   1.808       .  S
C612        C613   1.406       .  A
C613        C614   1.396       .  A
C613        H620   1.083       .  S
C614        S616   1.806       .  S
S615        H618   1.407       .  S
S616        H617   1.406       .  S
C621        C622   1.406       .  A
C621        C626   1.418       .  A
C622        C623   1.399       .  A
C622        H631   1.083       .  S
C623        C624   1.412       .  A
C623        S627   1.805       .  S
C624        C625   1.402       .  A
C625        C626   1.410       .  A
C625        H632   1.083       .  S
C626        S628   1.807       .  S
S627        H630   1.407       .  S
S628        H629   1.407       .  S
C633        C634   1.404       .  A
C633        C638   1.411       .  A
C634        C635   1.405       .  A
C634        H643   1.084       .  S
C635        C636   1.413       .  A
C635        S639   1.802       .  S
C636        C637   1.402       .  A
C637        C638   1.396       .  A
C637        H644   1.084       .  S
C638        S640   1.805       .  S
S639        H642   1.404       .  S
S640        H641   1.407       .  S
C645        C646   1.402       .  A
C645        C650   1.412       .  A
C646        C647   1.399       .  A
C646        H655   1.084       .  S
C647        C648   1.412       .  A
C647        S651   1.804       .  S
C648        C649   1.403       .  A
C649        C650   1.402       .  A
C649        H656   1.083       .  S
C650        S652   1.804       .  S
S651        H654   1.406       .  S
S652        H653   1.404       .  S
C657        C658   1.410       .  A
C657        C662   1.419       .  A
C658        C659   1.405       .  A
C658        H667   1.081       .  S
C659        C660   1.411       .  A
C659        S663   1.804       .  S
C660        C661   1.400       .  A
C661        C662   1.399       .  A
C661        H668   1.081       .  S
C662        S664   1.811       .  S
S663        H666   1.406       .  S
S664        H665   1.407   1_545  S
C669        C670   1.403       .  A
C669        C674   1.410       .  A
C670        C671   1.408       .  A
C670        H679   1.082       .  S
C671        C672   1.417       .  A
C671        S675   1.807       .  S
C672        C673   1.407       .  A
C673        C674   1.392       .  A
C673        H680   1.082       .  S
C674        S676   1.808       .  S
S675        H678   1.407       .  S
S676        H677   1.407       .  S
C681        C682   1.410       .  A
C681        C686   1.420       .  A
C682        C683   1.403       .  A
C682        H691   1.084       .  S
C683        C684   1.417       .  A
C683        S687   1.803       .  S
C684        C685   1.406       .  A
C685        C686   1.397       .  A
C685        H692   1.084       .  S
C686        S688   1.802       .  S
S687        H690   1.408       .  S
S688        H689   1.408       .  S
C693        C694   1.406       .  A
C693        C698   1.419       .  A
C694        C695   1.398       .  A
C694        H703   1.086       .  S
C695        C696   1.412       .  A
C695        S699   1.806       .  S
C696        C697   1.402       .  A
C697        C698   1.410       .  A
C697        H704   1.084       .  S
C698        S700   1.807       .  S
S699        H702   1.407       .  S
S700        H701   1.407       .  S
C705        C706   1.403       .  A
C705        C710   1.416       .  A
C706        C707   1.392       .  A
C706        H715   1.083       .  S
C707        C708   1.416       .  A
C707        S711   1.806       .  S
C708        C709   1.406       .  A
C709        C710   1.404       .  A
C709        H716   1.082       .  S
C710        S712   1.804       .  S
S711        H714   1.408       .  S
S712        H713   1.407       .  S
C717        C718   1.402       .  A
C717        C722   1.409       .  A
C718        C719   1.403       .  A
C718        H727   1.085       .  S
C719        C720   1.417       .  A
C719        S723   1.802       .  S
C720        C721   1.407       .  A
C721        C722   1.393       .  A
C721        H728   1.084       .  S
C722        S724   1.807       .  S
S723        H726   1.407       .  S
S724        H725   1.407       .  S
C729        C730   1.404       .  A
C729        C734   1.416       .  A
C730        C731   1.396       .  A
C730        H739   1.086       .  S
C731        C732   1.414       .  A
C731        S735   1.806   1_565  S
C732        C733   1.405       .  A
C733        C734   1.411       .  A
C733        H740   1.085       .  S
C734        S736   1.806       .  S
S735        H738   1.407   1_545  S
S736        H737   1.407       .  S
C741        C742   1.402       .  A
C741        C746   1.411       .  A
C742        C743   1.404       .  A
C742        H751   1.082       .  S
C743        C744   1.417       .  A
C743        S747   1.802       .  S
C744        C745   1.407       .  A
C745        C746   1.399       .  A
C745        H752   1.082       .  S
C746        S748   1.805       .  S
S747        H750   1.407       .  S
S748        H749   1.407       .  S
C753        C754   1.399       .  A
C753        C758   1.411       .  A
C754        C755   1.392       .  A
C754        H763   1.084       .  S
C755        C756   1.417       .  A
C755        S759   1.803       .  S
C756        C757   1.408       .  A
C757        C758   1.404       .  A
C757        H764   1.082       .  S
C758        S760   1.803       .  S
S759        H762   1.408       .  S
S760        H761   1.405       .  S
C765        C766   1.404       .  A
C765        C770   1.416       .  A
C766        C767   1.394       .  A
C766        H775   1.086       .  S
C767        C768   1.417       .  A
C767        S771   1.802       .  S
C768        C769   1.406       .  A
C769        C770   1.403       .  A
C769        H776   1.087       .  S
C770        S772   1.802       .  S
S771        H774   1.408       .  S
S772        H773   1.407       .  S
C777        C778   1.401       .  A
C777        C782   1.408       .  A
C778        C779   1.407       .  A
C778        H787   1.078       .  S
C779        C780   1.420       .  A
C779        S783   1.808       .  S
C780        C781   1.408       .  A
C781        C782   1.395       .  A
C781        H788   1.079       .  S
C782        S784   1.805       .  S
S783        H786   1.407       .  S
S784        H785   1.407       .  S
C789        C790   1.400       .  A
C789        C794   1.408       .  A
C790        C791   1.406       .  A
C790        H799   1.084       .  S
C791        C792   1.420       .  A
C791        S795   1.808       .  S
C792        C793   1.408       .  A
C793        C794   1.395       .  A
C793        H800   1.085       .  S
C794        S796   1.806       .  S
S795        H798   1.407       .  S
S796        H797   1.406       .  S
C801        C802   1.404       .  A
C801        C806   1.412       .  A
C802        C803   1.406       .  A
C802        H811   1.085       .  S
C803        C804   1.414       .  A
C803        S807   1.800       .  S
C804        C805   1.401       .  A
C805        C806   1.393       .  A
C805        H812   1.085       .  S
C806        S808   1.806       .  S
S807        H810   1.405       .  S
S808        H809   1.407       .  S
C813        C814   1.402       .  A
C813        C818   1.412       .  A
C814        C815   1.399       .  A
C814        H823   1.083       .  S
C815        C816   1.411       .  A
C815        S819   1.804       .  S
C816        C817   1.403       .  A
C817        C818   1.403       .  A
C817        H824   1.082       .  S
C818        S820   1.804       .  S
S819        H822   1.406       .  S
S820        H821   1.405       .  S
C825        C826   1.404       .  A
C825        C830   1.409       .  A
C826        C827   1.407       .  A
C826        H835   1.084       .  S
C827        C828   1.418       .  A
C827        S831   1.802       .  S
C828        C829   1.406       .  A
C829        C830   1.395       .  A
C829        H836   1.083       .  S
C830        S832   1.805       .  S
S831        H834   1.407       .  S
S832        H833   1.407       .  S
C837        C838   1.402       .  A
C837        C842   1.412       .  A
C838        C839   1.403       .  A
C838        H847   1.086       .  S
C839        C840   1.417       .  A
C839        S843   1.802       .  S
C840        C841   1.405       .  A
C841        C842   1.397       .  A
C841        H848   1.086       .  S
C842        S844   1.806       .  S
S843        H846   1.407       .  S
S844        H845   1.407       .  S
C849        C850   1.404       .  A
C849        C854   1.417       .  A
C850        C851   1.398       .  A
C850        H859   1.084       .  S
C851        C852   1.419       .  A
C851        S855   1.803       .  S
C852        C853   1.407       .  A
C853        C854   1.405       .  A
C853        H860   1.084       .  S
C854        S856   1.802       .  S
S855        H858   1.408   1_455  S
S856        H857   1.408       .  S
C861        C862   1.407       .  A
C861        C866   1.417       .  A
C862        C863   1.403       .  A
C862        H871   1.083       .  S
C863        C864   1.417       .  A
C863        S867   1.802       .  S
C864        C865   1.406       .  A
C865        C866   1.395       .  A
C865        H872   1.083       .  S
C866        S868   1.804       .  S
S867        H870   1.407       .  S
S868        H869   1.408       .  S
C873        C874   1.404       .  A
C873        C878   1.411       .  A
C874        C875   1.406       .  A
C874        H883   1.083       .  S
C875        C876   1.414       .  A
C875        S879   1.802       .  S
C876        C877   1.401       .  A
C877        C878   1.401       .  A
C877        H884   1.082       .  S
C878        S880   1.802       .  S
S879        H882   1.405       .  S
S880        H881   1.405       .  S
C885        C886   1.406       .  A
C885        C890   1.416       .  A
C886        C887   1.405       .  A
C886        H895   1.083       .  S
C887        C888   1.417       .  A
C887        S891   1.803       .  S
C888        C889   1.405       .  A
C889        C890   1.396       .  A
C889        H896   1.083       .  S
C890        S892   1.803   1_556  S
S891        H894   1.407       .  S
S892        H893   1.408       .  S
C897        C898   1.403       .  A
C897        C902   1.409       .  A
C898        C899   1.411       .  A
C898        H907   1.080       .  S
C899        C900   1.418       .  A
C899        S903   1.807       .  S
C900        C901   1.406       .  A
C901        C902   1.394       .  A
C901        H908   1.082       .  S
C902        S904   1.804       .  S
S903        H906   1.407       .  S
S904        H905   1.407       .  S
C909        C910   1.406       .  A
C909        C914   1.418       .  A
C910        C911   1.397       .  A
C910        H919   1.081       .  S
C911        C912   1.410       .  A
C911        S915   1.806       .  S
C912        C913   1.402       .  A
C913        C914   1.409       .  A
C913        H920   1.082       .  S
C914        S916   1.807       .  S
S915        H918   1.406       .  S
S916        H917   1.407       .  S
C921        C922   1.398       .  A
C921        C926   1.412       .  A
C922        C923   1.396       .  A
C922        H931   1.084       .  S
C923        C924   1.420       .  A
C923        S927   1.803       .  S
C924        C925   1.409       .  A
C925        C926   1.406       .  A
C925        H932   1.083       .  S
C926        S928   1.801       .  S
S927        H930   1.408   1_545  S
S928        H929   1.404       .  S
C933        C934   1.402       .  A
C933        C938   1.409       .  A
C934        C935   1.408       .  A
C934        H943   1.084       .  S
C935        C936   1.419       .  A
C935        S939   1.808       .  S
C936        C937   1.407       .  A
C937        C938   1.397       .  A
C937        H944   1.085       .  S
C938        S940   1.805       .  S
S939        H942   1.407       .  S
S940        H941   1.407       .  S
