geometry optimzed in LAMMPS
_audit_creation_date              2020-11-30 
_audit_creation_method            'lammps2cif' 
_symmetry_space_group_name_H-M    'P1' 
_symmetry_Int_Tables_number       1 
_symmetry_cell_setting            triclinic 
loop_ 
_symmetry_equiv_pos_as_xyz 
  x,y,z 
_cell_length_a                    30.42816642 
_cell_length_b                    30.890154683147212 
_cell_length_c                    30.085255248521616 
_cell_angle_alpha                 88.88437220878586 
_cell_angle_beta                  89.41043551982303 
_cell_angle_gamma                 122.69007792348827 
loop_ 
_atom_site_label 
_atom_site_type_symbol 
_atom_site_fract_x 
_atom_site_fract_y 
_atom_site_fract_z 
_atom_site_charge 
C1          C  0.74959036  0.15002576  0.19791792     0.80100
N2          N  0.77511441  0.12822891  0.21562318    -0.78200
C3          C  0.81189284  0.13695628  0.00163133     0.82500
N4          N  0.83679667  0.18684475  0.01187015    -0.78200
C5          C  0.82325188  0.21915536  0.99566948     0.82600
N6          N  0.76958710  0.20153022  0.20551004    -0.79900
C7          C  0.20905008  0.41575022  0.18170084     0.80100
N8          N  0.25104047  0.45210525  0.94973655    -0.78200
C9          C  0.27254213  0.42940870  0.97447517     0.82500
N10         N  0.23987737  0.38523048  0.99764896    -0.78200
C11         C  0.18790189  0.36239743  0.99672249     0.82600
N12         N  0.18025030  0.36360264  0.18432798    -0.79900
C13         C  0.45880058  0.15431430  0.97676822     0.80100
N14         N  0.41635313  0.13894047  0.00284063    -0.78200
C15         C  0.39370933  0.16597028  0.00632584     0.82500
N16         N  0.42619995  0.23982322  0.23632328    -0.78200
C17         C  0.46848891  0.25373492  0.20956252     0.82600
N18         N  0.49093015  0.22469027  0.21207301    -0.79900
C19         C  0.27717065  0.80336356  0.20712305     0.80100
N20         N  0.27463975  0.83368115  0.23752956    -0.78200
C21         C  0.21673928  0.80067781  0.01142917     0.82500
N22         N  0.18238657  0.74941485  0.00808629    -0.78200
C23         C  0.19028368  0.72135188  0.97873034     0.82600
N24         N  0.23787490  0.75166729  0.20672483    -0.79900
C25         C  0.84916494  0.54020056  0.21424651     0.80100
N26         N  0.77680207  0.50136936  0.96368543    -0.78200
C27         C  0.75110682  0.51337865  0.99450168     0.82500
N28         N  0.77973598  0.55086494  0.02321597    -0.78200
C29         C  0.83228520  0.57747427  0.02335104     0.82600
N30         N  0.87692322  0.58417486  0.23822134    -0.79900
C31         C  0.56184124  0.77716147  0.95275005     0.80100
N32         N  0.53054307  0.73433892  0.21680043    -0.78200
C33         C  0.55835389  0.71032705  0.21299154     0.82500
N34         N  0.60673957  0.73381940  0.22973135    -0.78200
C35         C  0.62817895  0.77878610  0.25024729     0.82600
N36         N  0.61350309  0.80313047  0.95970544    -0.79900
O37         O  0.01656952  0.05879622  0.33219495    -0.88500
C38         C  0.07821218  0.05531662  0.19028559     0.87500
Mg39       Mg  0.93736295  0.00241338  0.32622837     1.58100
O40         O  0.12564970  0.03266308  0.34339009    -0.88200
O41         O  0.09071313  0.09978949  0.29545745    -0.75600
C42         C  0.90816721  0.77106406  0.10773529     0.92600
O43         O  0.94700765  0.00174198  0.19393100    -0.75400
O44         O  0.87627261  0.78549483  0.10986207    -0.82900
Mg45       Mg  0.00236286  0.07745208  0.15268187     1.58000
C46         C  0.14677794  0.91248293  0.34556968     0.92500
O47         O  0.08837774  0.17121021  0.34843643    -0.81100
H48         H  0.15085880  0.04819045  0.27990327    -0.06500
C49         C  0.00615059  0.89436485  0.17801065     0.87400
O50         O  0.95768567  0.95782369  0.27983800    -0.75600
O51         O  0.06372113  0.06223380  0.15431802    -0.88400
O52         O  0.16499253  0.95590908  0.36291949    -0.81200
C53         C  0.21482296  0.09261368  0.12660773     0.92600
C54         C  0.13661658  0.20056443  0.33980835     0.92500
Mg55       Mg  0.03685803  0.89965379  0.33265110     1.58000
O56         O  0.95633879  0.80266478  0.11437192    -0.81100
O57         O  0.09537482  0.97331905  0.29364562    -0.75400
O58         O  0.18805938  0.11212540  0.13432281    -0.81200
O59         O  0.94076352  0.09747371  0.14328916    -0.82900
O60         O  0.85734427  0.87401062  0.32819658    -0.81300
C61         C  0.12566897  0.01947787  0.30490503     0.86900
O62         O  0.97939884  0.91781757  0.32585295    -0.88400
O63         O  0.03144288  0.91791793  0.14381246    -0.88500
O64         O  0.95656888  0.87224990  0.18021896    -0.75600
Mg65       Mg  0.14702742  0.11024514  0.35056402     1.58000
O66         O  0.19602471  0.04551919  0.13645042    -0.82900
H67         H  0.02119870  0.07900433  0.26808977    -0.06700
O68         O  0.91551556  0.94086418  0.14490485    -0.88200
H69         H  0.89520997  0.92576457  0.20948076    -0.06500
H70         H  0.97727846  0.90780559  0.26057300    -0.06700
C71         C  0.91809890  0.95452918  0.18372451     0.86900
C72         C  0.04157769  0.07902751  0.29731821     0.87500
C73         C  0.97146091  0.92649865  0.28767375     0.87500
H74         H  0.02646125  0.89224233  0.20641651    -0.06600
O75         O  0.09498782  0.02575118  0.19439765    -0.75700
Mg76       Mg  0.89562265  0.86483889  0.12956830     1.58000
H77         H  0.07668086  0.07489766  0.21848621    -0.06700
C78         C  0.89645307  0.06284742  0.12980184     0.92500
O79         O  0.85566683  0.94433087  0.32012068    -0.82900
C80         C  0.83517849  0.89696642  0.31521967     0.92600
O81         O  0.16942023  0.19189885  0.35625324    -0.82900
Mg82       Mg  0.11220126  0.98080206  0.14475890     1.58200
O83         O  0.88026122  0.01655695  0.13943404    -0.81200
O84         O  0.09860763  0.88203032  0.33821211    -0.82900
C85         C  0.06075125  0.47217395  0.11819792     0.86300
C86         C  0.08526199  0.51333698  0.08081421    -0.53900
C87         C  0.05314421  0.51578750  0.05144323     0.09300
C88         C  0.99356323  0.47680590  0.06609089     0.20200
C89         C  0.02582955  0.48738635  0.14264482    -0.54600
C90         C  0.98992543  0.49003213  0.11632096     0.09400
C91         C  0.02080409  0.42204542  0.09652987    -0.54200
C92         C  0.98553090  0.42154980  0.06881107     0.09900
H93         H  0.12466101  0.54652313  0.08215057     0.14500
H94         H  0.96563499  0.47889532  0.04413144     0.00200
H95         H  0.02869640  0.49490200  0.17789305     0.14800
H96         H  0.01797232  0.38750303  0.10735307     0.14500
C97         C  0.52168564  0.92813126  0.03813733     0.86300
C98         C  0.47258846  0.90047997  0.06778727    -0.53900
C99         C  0.46533939  0.92996518  0.09582474     0.09300
C100        C  0.50891402  0.98900420  0.09071168     0.20200
C101        C  0.51509713  0.97019111  0.01366744    -0.54600
C102        C  0.50967109  0.00347873  0.04060068     0.09400
C103        C  0.56628519  0.95966280  0.07107897    -0.54200
C104        C  0.56261732  0.99438174  0.09685735     0.09900
H105        H  0.44355406  0.85953875  0.06621342     0.14500
H106        H  0.50149105  0.01136789  0.11403162     0.00200
H107        H  0.51300880  0.97308153  0.97826562     0.14800
H108        H  0.59918479  0.95529481  0.07270164     0.14500
C109        C  0.47299798  0.48160668  0.05325655     0.86300
C110        C  0.48352376  0.51677929  0.09146282    -0.53900
C111        C  0.52547059  0.53027647  0.11606914     0.09300
C112        C  0.55175267  0.49916503  0.10249088     0.20200
C113        C  0.52523187  0.50334292  0.02718325    -0.54600
C114        C  0.56638526  0.50981361  0.05151273     0.09400
C115        C  0.46600207  0.43331169  0.07796833    -0.54200
C116        C  0.50650551  0.43985778  0.10471404     0.09900
H117        H  0.45848986  0.53031582  0.09952224     0.14500
H118        H  0.58693443  0.51176382  0.12137272     0.00200
H119        H  0.52683146  0.50624644  0.99118587     0.14800
H120        H  0.43023244  0.39693025  0.07398261     0.14500
C121        C  0.71185905  0.85908499  0.25414872    -0.05900
C122        C  0.68225093  0.80623524  0.26392487     0.00000
C123        C  0.70363059  0.78262855  0.28814661    -0.08600
C124        C  0.75448422  0.81388762  0.30318073    -0.06000
C125        C  0.78359282  0.86742427  0.29525324     0.00000
C126        C  0.76213076  0.89080191  0.26979543    -0.08500
C127        C  0.79028327  0.94846162  0.25930785     0.61900
H128        H  0.69435013  0.87563600  0.23478568     0.12600
H129        H  0.77128831  0.79664137  0.32251129     0.12600
C130        C  0.70607284  0.73252660  0.96959682     0.62100
F131        F  0.79647880  0.97446239  0.29785953    -0.23000
F132        F  0.76251591  0.96018046  0.23077566    -0.20400
F133        F  0.83346391  0.97022642  0.01622411    -0.20000
F134        F  0.66167477  0.69809936  0.26105006    -0.20100
F135        F  0.65611420  0.69465051  0.98363511    -0.20400
F136        F  0.74019722  0.71981845  0.98594314    -0.23100
C137        C  0.55669123  0.85505552  0.94855669    -0.05900
C138        C  0.53666531  0.80591958  0.96819072     0.00000
C139        C  0.51334203  0.79752903  0.01113305    -0.08600
C140        C  0.50986815  0.83719098  0.03174268    -0.06000
C141        C  0.52819379  0.88669488  0.01145848     0.00000
C142        C  0.55535821  0.89546677  0.96968057    -0.08500
C143        C  0.58271432  0.94665684  0.94555050     0.61900
H144        H  0.57710257  0.86282248  0.91679458     0.12600
H145        H  0.49445155  0.82976082  0.06541984     0.12600
C146        C  0.49440308  0.74705188  0.03597173     0.62100
F147        F  0.54510444  0.94955444  0.92404888    -0.23000
F148        F  0.61909798  0.95183786  0.91424634    -0.20400
F149        F  0.60869755  0.98640227  0.97443210    -0.20000
F150        F  0.53613681  0.74200453  0.04402721    -0.20100
F151        F  0.45865880  0.70669764  0.01051313    -0.20400
F152        F  0.47043104  0.74382963  0.07632316    -0.23100
C153        C  0.50320857  0.56868093  0.18044359    -0.05900
C154        C  0.54044881  0.57478956  0.14774071     0.00000
C155        C  0.58073198  0.62638173  0.13628016    -0.08600
C156        C  0.58152863  0.66837844  0.15563795    -0.06000
C157        C  0.54377557  0.66250110  0.18704904     0.00000
C158        C  0.50480022  0.61123376  0.20067905    -0.08500
C159        C  0.45351476  0.62340064  0.89222722     0.61900
H160        H  0.47121233  0.52989081  0.18875838     0.12600
H161        H  0.61281873  0.70728674  0.14643143     0.12600
C162        C  0.62137594  0.63740713  0.10132298     0.62100
F163        F  0.44608731  0.64644921  0.92769078    -0.23000
F164        F  0.43125133  0.54992404  0.24644401    -0.20400
F165        F  0.46778284  0.65595987  0.85540152    -0.20000
F166        F  0.59706764  0.62171120  0.06115942    -0.20100
F167        F  0.64485611  0.61097132  0.11216228    -0.20400
F168        F  0.66008446  0.68924557  0.09711168    -0.23100
C169        C  0.93466333  0.74271489  0.29351178    -0.05900
C170        C  0.89103905  0.71857473  0.09322657     0.00000
C171        C  0.84197215  0.67403979  0.10484532    -0.08600
C172        C  0.82784963  0.62737366  0.08516860    -0.06000
C173        C  0.85887696  0.62427101  0.05155943     0.00000
C174        C  0.91724662  0.69785256  0.26923550    -0.08500
C175        C  0.93475332  0.70295055  0.22085887     0.61900
H176        H  0.96339081  0.78000326  0.27866959     0.12600
H177        H  0.79001227  0.59341614  0.09373973     0.12600
C178        C  0.80326711  0.67568053  0.13599436     0.62100
F179        F  0.96228955  0.75365507  0.20540103    -0.23000
F180        F  0.89209026  0.67532650  0.19432996    -0.20400
F181        F  0.96645877  0.68428068  0.21606243    -0.20000
F182        F  0.78190353  0.69981148  0.11449599    -0.20100
F183        F  0.82762167  0.70216076  0.17381831    -0.20400
F184        F  0.76284910  0.62676669  0.14918267    -0.23100
C185        C  0.61205044  0.46177039  0.03669884    -0.05900
C186        C  0.61031471  0.50625071  0.02926805     0.00000
C187        C  0.64954778  0.54477128  0.99973076    -0.08600
C188        C  0.68834464  0.53816141  0.98061563    -0.06000
C189        C  0.69477176  0.49810525  0.99359310     0.00000
C190        C  0.65498218  0.45851423  0.02176518    -0.08500
C191        C  0.65918818  0.41399312  0.03722109     0.61900
H192        H  0.58079868  0.43038303  0.05643494     0.12600
H193        H  0.72131177  0.57564126  0.21922850     0.12600
C194        C  0.65704139  0.59683432  0.99338900     0.62100
F195        F  0.61560582  0.37764227  0.06209756    -0.23000
F196        F  0.70263007  0.43186391  0.06320847    -0.20400
F197        F  0.66406702  0.39030772  0.00066235    -0.20000
F198        F  0.67727577  0.62377222  0.03157156    -0.20100
F199        F  0.61056155  0.59226979  0.98363904    -0.20400
F200        F  0.63531855  0.57775439  0.19562608    -0.23100
C201        C  0.93495003  0.56296533  0.17624764    -0.05900
C202        C  0.88117493  0.52519208  0.18452853     0.00000
C203        C  0.86258828  0.47618567  0.16544637    -0.08600
C204        C  0.89806870  0.46704497  0.14162349    -0.06000
C205        C  0.95220638  0.50432461  0.13601476     0.00000
C206        C  0.97001334  0.55392093  0.15250209    -0.08500
C207        C  0.02582100  0.59850646  0.14329377     0.61900
H208        H  0.95023258  0.60082524  0.18886407     0.12600
H209        H  0.88361454  0.42981033  0.12784337     0.12600
C210        C  0.84144002  0.43706628  0.98122053     0.62100
F211        F  0.03424564  0.64443733  0.15809190    -0.23000
F212        F  0.03622629  0.60428440  0.09813493    -0.20400
F213        F  0.06061644  0.58970997  0.16400103    -0.20000
F214        F  0.78879907  0.41291380  0.97266218    -0.20100
F215        F  0.85151742  0.46092927  0.02162706    -0.20400
F216        F  0.85308673  0.39982288  0.98376674    -0.23100
C217        C  0.14713759  0.83411043  0.09408201    -0.05900
C218        C  0.18218453  0.89640497  0.33310225     0.00000
C219        C  0.22006931  0.92173345  0.29844115    -0.08600
C220        C  0.24189286  0.89599491  0.27983967    -0.06000
C221        C  0.22892350  0.84790253  0.29720261     0.00000
C222        C  0.17323941  0.81129300  0.07880476    -0.08500
C223        C  0.16767399  0.76725702  0.10687457     0.61900
H224        H  0.12068930  0.81719255  0.12274418     0.12600
H225        H  0.26629474  0.91163784  0.24999798     0.12600
C226        C  0.23560073  0.97436060  0.28030036     0.62100
F227        F  0.17770179  0.78199999  0.15060212    -0.23000
F228        F  0.20218593  0.75355757  0.09403590    -0.20400
F229        F  0.11714695  0.72501258  0.10461771    -0.20000
F230        F  0.25704299  0.00930746  0.31394645    -0.20100
F231        F  0.19234680  0.97283870  0.26436867    -0.20400
F232        F  0.27241087  0.99136586  0.24601568    -0.23100
C233        C  0.16539251  0.62886045  0.98178376    -0.05900
C234        C  0.14953915  0.66363494  0.97979451     0.00000
C235        C  0.09524781  0.64295774  0.98853982    -0.08600
C236        C  0.06214849  0.59238806  0.00765277    -0.06000
C237        C  0.08019463  0.55973408  0.01573034     0.00000
C238        C  0.13130480  0.57709277  0.99723111    -0.08500
C239        C  0.15294392  0.54323040  0.99329137     0.61900
H240        H  0.20565030  0.64268271  0.97305750     0.12600
H241        H  0.02262601  0.57944794  0.01813602     0.12600
C242        C  0.07092598  0.67372649  0.97960446     0.62100
F243        F  0.16917861  0.54562099  0.94972200    -0.23000
F244        F  0.11659226  0.49246738  0.00460359    -0.20400
F245        F  0.19555138  0.56099981  0.02025248    -0.20000
F246        F  0.09500411  0.72389532  0.21393095    -0.20100
F247        F  0.06340618  0.69040611  0.01954276    -0.20400
F248        F  0.02350796  0.64303828  0.95937349    -0.23100
C249        C  0.41530298  0.86555060  0.15752939    -0.05900
C250        C  0.41819736  0.90241871  0.12702699     0.00000
C251        C  0.37209665  0.90223869  0.11983876    -0.08600
C252        C  0.32576035  0.86692233  0.14463394    -0.06000
C253        C  0.32299727  0.83007449  0.17503168     0.00000
C254        C  0.36888722  0.82989364  0.18182571    -0.08500
C255        C  0.36874173  0.79241006  0.21522368     0.61900
H256        H  0.44980379  0.86405616  0.16138345     0.12600
H257        H  0.29103523  0.86803359  0.14069134     0.12600
C258        C  0.37136382  0.93781239  0.08481856     0.62100
F259        F  0.41665551  0.79720730  0.21637279    -0.23000
F260        F  0.33147741  0.74258574  0.20394917    -0.20400
F261        F  0.35093022  0.81085856  0.01236977    -0.20000
F262        F  0.38200335  0.92651515  0.04335339    -0.20100
F263        F  0.40861678  0.98834132  0.09383631    -0.20400
F264        F  0.32333685  0.93275429  0.08357305    -0.23100
C265        C  0.29802716  0.10216857  0.10635771    -0.05900
C266        C  0.26561763  0.12106833  0.10096343     0.00000
C267        C  0.32487985  0.18490623  0.36647940    -0.08600
C268        C  0.36523781  0.20668268  0.33359300    -0.06000
C269        C  0.34946490  0.14865323  0.03936805     0.00000
C270        C  0.33796511  0.11297256  0.07555895    -0.08500
C271        C  0.36543316  0.08416862  0.08201168     0.61900
H272        H  0.28930947  0.07559114  0.13404086     0.12600
H273        H  0.40222285  0.24157695  0.33993540     0.12600
C274        C  0.33208098  0.21047849  0.41054312     0.62100
F275        F  0.34684459  0.05171050  0.11931506    -0.23000
F276        F  0.41842105  0.11873197  0.08698366    -0.20400
F277        F  0.35677702  0.05350933  0.04603390    -0.20000
F278        F  0.32768443  0.17762769  0.44466830    -0.20100
F279        F  0.29413023  0.22162288  0.41648962    -0.20400
F280        F  0.38030153  0.25592696  0.41259489    -0.23100
C281        C  0.51373870  0.13314011  0.02077501    -0.05900
C282        C  0.48293279  0.12274402  0.98345007     0.00000
C283        C  0.46136979  0.07353538  0.96502156    -0.08600
C284        C  0.47200357  0.03726303  0.98378683    -0.06000
C285        C  0.50241618  0.04690500  0.02213505     0.00000
C286        C  0.52452437  0.09748330  0.04022600    -0.08300
C287        C  0.56136238  0.11707326  0.07880567     0.61900
H288        H  0.52732056  0.16944203  0.03641019     0.12600
H289        H  0.45449636  0.99984088  0.96927304     0.12600
C290        C  0.42604397  0.07763456  0.19486613     0.62100
F291        F  0.58791245  0.17006780  0.08185614    -0.23000
F292        F  0.59850653  0.10555742  0.07288690    -0.20400
F293        F  0.53414429  0.09614356  0.11838192    -0.20000
F294        F  0.41890699  0.11539737  0.17843330    -0.20100
F295        F  0.37886289  0.03720614  0.21205662    -0.20400
F296        F  0.44156810  0.06025214  0.15985884    -0.23100
C297        C  0.53037718  0.34696917  0.18259289    -0.05900
C298        C  0.48515086  0.29833991  0.17620637     0.00000
C299        C  0.45087747  0.29628690  0.14358239    -0.08600
C300        C  0.46056271  0.34191032  0.12161361    -0.06000
C301        C  0.50403681  0.39238621  0.12927407     0.00000
C302        C  0.54159791  0.39313390  0.15904935    -0.08500
C303        C  0.59349513  0.44143764  0.16776933     0.61900
H304        H  0.46634549  0.31280101  0.98460342     0.12600
H305        H  0.43246994  0.33594334  0.09721496     0.12600
C306        C  0.40330961  0.24643644  0.12909355     0.62100
F307        F  0.48241666  0.39451870  0.99806815    -0.23000
F308        F  0.58472027  0.47591463  0.18717288    -0.20400
F309        F  0.62256950  0.46207008  0.12895050    -0.20000
F310        F  0.35868050  0.24547527  0.14074011    -0.20100
F311        F  0.39967484  0.20307664  0.14704064    -0.20400
F312        F  0.40635769  0.24474179  0.08344291    -0.23100
C313        C  0.12986031  0.31010497  0.05924375    -0.05900
C314        C  0.16885876  0.28649696  0.21921137     0.00000
C315        C  0.18992581  0.25618808  0.22680795    -0.08600
C316        C  0.18232888  0.23267685  0.26865350    -0.06000
C317        C  0.15133915  0.23593922  0.30171526     0.00000
C318        C  0.12434071  0.26050632  0.29147300    -0.08500
C319        C  0.07154651  0.25838303  0.12555257     0.61900
H320        H  0.12906832  0.34317209  0.06934475     0.12600
H321        H  0.19921326  0.20995556  0.27483747     0.12600
C322        C  0.22196833  0.24969893  0.19195488     0.62100
F323        F  0.07602998  0.30409293  0.13567240    -0.23000
F324        F  0.08429153  0.24079158  0.16255308    -0.20400
F325        F  0.03912452  0.23971252  0.30994710    -0.20000
F326        F  0.20362777  0.25217618  0.95475310    -0.20100
F327        F  0.22109059  0.27047589  0.15103730    -0.20400
F328        F  0.20167652  0.19785426  0.18695773    -0.23100
C329        C  0.36552946  0.49847136  0.99473106    -0.05900
C330        C  0.33022847  0.44885421  0.97963612     0.00000
C331        C  0.34651762  0.41319327  0.98287086    -0.08600
C332        C  0.39176571  0.42554633  0.00621828    -0.06000
C333        C  0.42619668  0.47404074  0.02397154     0.00000
C334        C  0.41418329  0.51269928  0.01425586    -0.08500
C335        C  0.44961875  0.56924418  0.02479131     0.61900
H336        H  0.35412010  0.52616035  0.99281553     0.12600
H337        H  0.40017250  0.39594718  0.00971566     0.12600
C338        C  0.36525986  0.40484422  0.15580422     0.62100
F339        F  0.44600981  0.59895634  0.99246456    -0.23000
F340        F  0.50151861  0.58502522  0.02579946    -0.20400
F341        F  0.43389678  0.57931767  0.06446488    -0.20000
F342        F  0.31575990  0.36338610  0.14825292    -0.20100
F343        F  0.39837228  0.38845106  0.14736704    -0.20400
F344        F  0.37598445  0.44448801  0.12651459    -0.23100
C345        C  0.12665749  0.41397253  0.18959510    -0.05900
C346        C  0.17834596  0.44031397  0.17261801     0.00000
C347        C  0.19372459  0.48121461  0.14192130    -0.08600
C348        C  0.15592611  0.49148502  0.12705443    -0.06000
C349        C  0.10231955  0.46403029  0.14261207     0.00000
C350        C  0.08873280  0.42401902  0.17548974    -0.08500
C351        C  0.02071987  0.39878627  0.93956783     0.61900
H352        H  0.10077427  0.40223295  0.97108435     0.12600
H353        H  0.16968869  0.52043372  0.10133303     0.12600
C354        C  0.24937067  0.51238493  0.12323209     0.62100
F355        F  0.00789800  0.34895823  0.94652572    -0.23000
F356        F  0.01524889  0.33853291  0.18172282    -0.20400
F357        F  0.02117894  0.42078215  0.97894664    -0.20000
F358        F  0.26040361  0.48060727  0.10067995    -0.20100
F359        F  0.28374529  0.53479512  0.15764108    -0.20400
F360        F  0.25758196  0.55144607  0.09408106    -0.23100
C361        C  0.92390707  0.13593615  0.28552598    -0.05900
C362        C  0.87132943  0.07574879  0.09454563     0.00000
C363        C  0.81806440  0.05869325  0.09636698    -0.08600
C364        C  0.79831846  0.07463863  0.06200268    -0.06000
C365        C  0.82887445  0.10553204  0.02532127     0.00000
C366        C  0.89817122  0.15044803  0.25551300    -0.08500
C367        C  0.92777400  0.18488355  0.21523485     0.61900
H368        H  0.96409988  0.14812825  0.27881407     0.12600
H369        H  0.76056171  0.06697625  0.06609235     0.12600
C370        C  0.78322584  0.02731943  0.13611394     0.62100
F371        F  0.97535106  0.18978102  0.20851202    -0.23000
F372        F  0.93717000  0.23342098  0.22122785    -0.20400
F373        F  0.89878434  0.16455657  0.17746293    -0.20000
F374        F  0.73252854  0.01486125  0.13156733    -0.20100
F375        F  0.80300499  0.05514832  0.17425319    -0.20400
F376        F  0.78113019  0.98170225  0.14090665    -0.23100
C377        C  0.91420021  0.29020504  0.00770460    -0.05900
C378        C  0.86181180  0.27573359  0.00652535     0.00000
C379        C  0.84993142  0.30984123  0.02616833    -0.08600
C380        C  0.89126966  0.35763660  0.04377351    -0.06000
C381        C  0.94349853  0.37044628  0.04718330     0.00000
C382        C  0.95325242  0.33228796  0.03146968    -0.08500
C383        C  0.00107048  0.32962805  0.04242007     0.61900
H384        H  0.92328126  0.26403558  0.99329141     0.12600
H385        H  0.88221743  0.38405270  0.05766969     0.12600
C386        C  0.79375856  0.29485989  0.02992131     0.62100
F387        F  0.00619921  0.29698529  0.01510534    -0.23000
F388        F  0.99502170  0.30966433  0.08520155    -0.20400
F389        F  0.04739214  0.37686556  0.03787810    -0.20000
F390        F  0.78918286  0.33117008  0.05206422    -0.20100
F391        F  0.89271535  0.29016747  0.15946938    -0.20400
F392        F  0.77406807  0.29004579  0.98783444    -0.23100
C393        C  0.70541445  0.09300225  0.13227719    -0.05900
C394        C  0.70071543  0.11623016  0.17012210     0.00000
C395        C  0.64978201  0.10586626  0.17935481    -0.08600
C396        C  0.60510863  0.06367525  0.15839396    -0.06000
C397        C  0.61011324  0.03794711  0.12190034     0.00000
C398        C  0.66199712  0.05981600  0.10534167    -0.08500
C399        C  0.67225954  0.06191056  0.05575291     0.61900
H400        H  0.74457552  0.10600237  0.12092323     0.12600
H401        H  0.56627396  0.05267555  0.16891770     0.12600
C402        C  0.64355727  0.14324411  0.20609912     0.62100
F403        F  0.71622418  0.10910833  0.04479221    -0.23000
F404        F  0.63236331  0.05836203  0.03136702    -0.20400
F405        F  0.67879852  0.02289350  0.04335153    -0.20000
F406        F  0.66992600  0.19074696  0.18417983    -0.20100
F407        F  0.67326463  0.15586212  0.00874901    -0.20400
F408        F  0.60509023  0.14534031  0.97108329    -0.23100
C409        C  0.76719245  0.16775021  0.45526753     0.80100
N410        N  0.78722809  0.14121823  0.47395532    -0.78200
C411        C  0.81925802  0.15652854  0.23997846     0.82500
N412        N  0.83758358  0.20650082  0.24668443    -0.78200
C413        C  0.81436965  0.22999108  0.22980152     0.82600
N414        N  0.79200502  0.22005734  0.46319497    -0.79900
C415        C  0.19938266  0.43122347  0.44275512     0.80100
N416        N  0.26130306  0.44159483  0.19247947    -0.78200
C417        C  0.28317015  0.41350928  0.20293983     0.82500
N418        N  0.25219543  0.36201845  0.20588528    -0.78200
C419        C  0.20132430  0.33663509  0.19675807     0.82600
N420        N  0.16812775  0.39238204  0.47201034    -0.79900
C421        C  0.46996876  0.18208779  0.24100632     0.80100
N422        N  0.42765872  0.16998591  0.26660379    -0.78200
C423        C  0.40591650  0.19842186  0.26472580     0.82500
N424        N  0.43021785  0.22210315  0.49170356    -0.78200
C425        C  0.46917553  0.23538605  0.46083948     0.82600
N426        N  0.48889771  0.20426133  0.45750077    -0.79900
C427        C  0.29098961  0.81993420  0.46345627     0.80100
N428        N  0.28457404  0.84906489  0.49239680    -0.78200
C429        C  0.23513541  0.81399775  0.26797557     0.82500
N430        N  0.19647686  0.76374780  0.26706639    -0.78200
C431        C  0.19624955  0.73191974  0.23685423     0.82600
N432        N  0.25479889  0.76741622  0.46328693    -0.79900
C433        C  0.83778677  0.53207523  0.46390809     0.80100
N434        N  0.79475524  0.51321607  0.21760772    -0.78200
C435        C  0.77030499  0.53048798  0.24470793     0.82500
N436        N  0.80015518  0.57369436  0.26740138    -0.78200
C437        C  0.85263646  0.60080408  0.26477743     0.82600
N438        N  0.86588339  0.57230241  0.49180929    -0.79900
C439        C  0.55339447  0.78126049  0.23818404     0.80100
N440        N  0.54649586  0.73174087  0.43983357    -0.78200
C441        C  0.57766566  0.71333787  0.42690411     0.82500
N442        N  0.63012083  0.74513118  0.43131886    -0.78200
C443        C  0.65250289  0.79251626  0.44793812     0.82600
N444        N  0.60171981  0.80203061  0.25392000    -0.79900
O445        O  0.99444739  0.05561127  0.59125650    -0.88500
C446        C  0.09414213  0.07159497  0.44087962     0.87500
Mg447      Mg  0.91639753  0.99685612  0.58481409     1.58100
O448        O  0.10970608  0.03171741  0.58878743    -0.88200
O449        O  0.06596819  0.09634538  0.55097555    -0.75600
C450        C  0.93127602  0.79131227  0.35585510     0.92600
O451        O  0.96791848  0.03050922  0.43142441    -0.75400
O452        O  0.90039020  0.80696734  0.35945702    -0.82900
Mg453      Mg  0.03121002  0.10267713  0.38935703     1.58000
C454        C  0.13545989  0.91544309  0.57998068     0.92500
O455        O  0.06379071  0.16616725  0.61939310    -0.81100
H456        H  0.14049421  0.05293667  0.52736721    -0.06500
C457        C  0.02794821  0.91442200  0.42971396     0.87400
O458        O  0.94143459  0.96143336  0.53146405    -0.75600
O459        O  0.08821555  0.08384053  0.40310346    -0.88400
O460        O  0.15210803  0.95737698  0.59929868    -0.81200
C461        C  0.23598787  0.10851051  0.39190042     0.92600
C462        C  0.11046027  0.19679239  0.60652416     0.92500
Mg463      Mg  0.02524855  0.90091476  0.57198217     1.58000
O464        O  0.97940467  0.82044556  0.36444773    -0.81100
O465        O  0.08358051  0.97718952  0.53561836    -0.75400
O466        O  0.20538498  0.12288341  0.40172222    -0.81200
O467        O  0.97521000  0.12580596  0.36458826    -0.82900
O468        O  0.85059761  0.87482239  0.56876007    -0.81300
C469        C  0.11293994  0.02215533  0.54982407     0.86900
O470        O  0.96748295  0.91901106  0.57016862    -0.88400
O471        O  0.05568192  0.93618629  0.39616918    -0.88500
O472        O  0.97890581  0.89492499  0.42949088    -0.75600
Mg473      Mg  0.12814064  0.10738919  0.59944500     1.58000
O474        O  0.22234777  0.06281070  0.40188420    -0.82900
H475        H  0.99559133  0.07808286  0.52823341    -0.06700
O476        O  0.94224246  0.96637863  0.38647666    -0.88200
H477        H  0.91235907  0.95579208  0.44825288    -0.06500
H478        H  0.96815749  0.92032407  0.50387699    -0.06700
C479        C  0.93963965  0.98261860  0.42311436     0.86900
C480        C  0.01747338  0.07709275  0.55589852     0.87500
C481        C  0.95945393  0.93274884  0.53395166     0.87500
H482        H  0.04568587  0.91202569  0.45984278    -0.06600
O483        O  0.11048297  0.04169808  0.44698761    -0.75700
Mg484      Mg  0.92088105  0.88779207  0.37663563     1.58000
H485        H  0.08528602  0.08661076  0.46927734    -0.06700
C486        C  0.92889062  0.09238470  0.35424005     0.92500
O487        O  0.83393749  0.93538732  0.57705239    -0.82900
C488        C  0.82603203  0.89604271  0.55777112     0.92600
O489        O  0.14520667  0.18614715  0.60947870    -0.82900
Mg490      Mg  0.13589046  0.99827145  0.40206344     1.58200
O491        O  0.91068315  0.04593102  0.36523473    -0.81200
O492        O  0.08758461  0.88411399  0.57240150    -0.82900
C493        C  0.04188099  0.45915090  0.34932622     0.86300
C494        C  0.07102805  0.50401963  0.31599522    -0.53900
C495        C  0.04302476  0.51906510  0.29301739     0.09300
C496        C  0.98237101  0.48453730  0.30638683     0.20200
C497        C  0.01149827  0.47604433  0.37966756    -0.54600
C498        C  0.97900892  0.48802298  0.35780151     0.09400
C499        C  0.99848477  0.41659173  0.32058642    -0.54200
C500        C  0.96506558  0.42715141  0.30060398     0.09900
H501        H  0.11299907  0.52464754  0.31191339     0.14500
H502        H  0.95778721  0.49514721  0.28821208     0.00200
H503        H  0.01416323  0.47706664  0.41549214     0.14800
H504        H  0.99177202  0.37950114  0.31578159     0.14500
C505        C  0.53062081  0.95169901  0.29838102     0.86300
C506        C  0.48163410  0.92658139  0.32729694    -0.53900
C507        C  0.47702074  0.95666118  0.35607394     0.09300
C508        C  0.52202596  0.01535690  0.35059545     0.20200
C509        C  0.52664296  0.99518938  0.27323831    -0.54600
C510        C  0.52212400  0.02918652  0.30032347     0.09400
C511        C  0.57588815  0.98216297  0.33088306    -0.54200
C512        C  0.57518266  0.01901901  0.35571846     0.09900
H513        H  0.45138037  0.88583295  0.32562651     0.14500
H514        H  0.51621348  0.03904058  0.37385662     0.00200
H515        H  0.52563128  0.99863657  0.23769840     0.14800
H516        H  0.60786903  0.97633639  0.33201402     0.14500
C517        C  0.46552427  0.44689272  0.30003040     0.86300
C518        C  0.48126086  0.49295151  0.32815720    -0.53900
C519        C  0.52057526  0.50809205  0.35694249     0.09300
C520        C  0.54505547  0.47353173  0.35143000     0.20200
C521        C  0.51752426  0.46416866  0.27428650    -0.54600
C522        C  0.55979982  0.47785577  0.30091011     0.09400
C523        C  0.45827088  0.40300452  0.33111798    -0.54200
C524        C  0.49966312  0.41530170  0.35750900     0.09900
H525        H  0.46381148  0.51516059  0.32206519     0.14500
H526        H  0.57832091  0.48317395  0.37254775     0.00200
H527        H  0.52071003  0.46514421  0.23853085     0.14800
H528        H  0.42384836  0.36419644  0.33037616     0.14500
C529        C  0.73030668  0.87504041  0.46774988    -0.05900
C530        C  0.70766995  0.82225783  0.46159163     0.00000
C531        C  0.73361757  0.79875420  0.47818099    -0.08600
C532        C  0.77273891  0.82497802  0.50884329    -0.06000
C533        C  0.78905100  0.87472530  0.52118068     0.00000
C534        C  0.77182540  0.90245835  0.49659146    -0.08500
C535        C  0.79423773  0.95947741  0.50154481     0.61900
H536        H  0.71253855  0.89386166  0.45250404     0.12600
H537        H  0.78912370  0.80538939  0.52504035     0.12600
C538        C  0.67264804  0.72541895  0.29952520     0.62100
F539        F  0.77453447  0.96656881  0.54018982    -0.23000
F540        F  0.78076060  0.97951318  0.46657824    -0.20400
F541        F  0.83845226  0.96641447  0.23929328    -0.20000
F542        F  0.72040211  0.74395232  0.41989325    -0.20100
F543        F  0.62651550  0.71160378  0.32145871    -0.20400
F544        F  0.70002809  0.71185501  0.32660696    -0.23100
C545        C  0.54660116  0.85714322  0.21858994    -0.05900
C546        C  0.53090171  0.81401355  0.24705936     0.00000
C547        C  0.51707822  0.81769316  0.29138694    -0.08600
C548        C  0.51984615  0.86280751  0.30529291    -0.06000
C549        C  0.53272950  0.90559753  0.27661852     0.00000
C550        C  0.54842751  0.90243031  0.23240531    -0.08500
C551        C  0.57138647  0.94772454  0.20050327     0.61900
H552        H  0.56101302  0.85645711  0.18572509     0.12600
H553        H  0.51259833  0.86512398  0.34017403     0.12600
C554        C  0.50160061  0.77427229  0.32501257     0.62100
F555        F  0.53132442  0.95117506  0.18398616    -0.23000
F556        F  0.59761840  0.94260996  0.16518327    -0.20400
F557        F  0.60693299  0.99208252  0.22192117    -0.20000
F558        F  0.54422366  0.77105977  0.33407100    -0.20100
F559        F  0.46237142  0.72847254  0.30776388    -0.20400
F560        F  0.48317151  0.78128912  0.36474058    -0.23100
C561        C  0.49668391  0.56881074  0.39144608    -0.05900
C562        C  0.53595304  0.55746412  0.38290775     0.00000
C563        C  0.58784881  0.59802448  0.39084598    -0.08600
C564        C  0.59743776  0.64547419  0.40662339    -0.06000
C565        C  0.55911310  0.65834995  0.41154263     0.00000
C566        C  0.50783215  0.61923705  0.40000656    -0.08500
C567        C  0.46514921  0.60180360  0.23652260     0.61900
H568        H  0.45630411  0.53843191  0.38779981     0.12600
H569        H  0.63698108  0.67418998  0.41294201     0.12600
C570        C  0.63385601  0.59272343  0.38175936     0.62100
F571        F  0.49045783  0.62564534  0.27495591    -0.23000
F572        F  0.42109843  0.58919261  0.37531697    -0.20400
F573        F  0.43625955  0.62167369  0.22233244    -0.20000
F574        F  0.63283847  0.57802215  0.33888586    -0.20100
F575        F  0.63175288  0.55663693  0.41099863    -0.20400
F576        F  0.68146326  0.63842959  0.38622965    -0.23100
C577        C  0.93408246  0.73017709  0.54915843    -0.05900
C578        C  0.91328956  0.74122161  0.33560218     0.00000
C579        C  0.87477537  0.69342370  0.35529268    -0.08600
C580        C  0.86075984  0.64813613  0.33288422    -0.06000
C581        C  0.88066140  0.64941829  0.28983029     0.00000
C582        C  0.91820304  0.68299111  0.52954667    -0.08500
C583        C  0.95184508  0.68199228  0.49279778     0.61900
H584        H  0.96955471  0.76492053  0.53715485     0.12600
H585        H  0.83118913  0.61115338  0.34765498     0.12600
C586        C  0.84694190  0.69060748  0.39846790     0.62100
F587        F  0.99666747  0.72993520  0.48412925    -0.23000
F588        F  0.92456348  0.66577670  0.45382580    -0.20400
F589        F  0.96653398  0.64870233  0.50584292    -0.20000
F590        F  0.81666361  0.71093450  0.39133852    -0.20100
F591        F  0.88290350  0.71861690  0.43057700    -0.20400
F592        F  0.81461414  0.64042792  0.41451763    -0.23100
C593        C  0.62989217  0.45711458  0.29473727    -0.05900
C594        C  0.61299674  0.49042776  0.28312727     0.00000
C595        C  0.64727802  0.53396562  0.25492355    -0.08600
C596        C  0.69496298  0.54115345  0.23889065    -0.06000
C597        C  0.71197373  0.50800664  0.25011861     0.00000
C598        C  0.67855954  0.46533438  0.27910412    -0.08500
C599        C  0.69444497  0.42847333  0.29312383     0.61900
H600        H  0.60437589  0.42410887  0.31628132     0.12600
H601        H  0.73332325  0.59421099  0.48359200     0.12600
C602        C  0.63755781  0.57569726  0.24131865     0.62100
F603        F  0.65880731  0.39100839  0.32317991    -0.23000
F604        F  0.74263073  0.45494374  0.31281874    -0.20400
F605        F  0.69758473  0.40451469  0.25599515    -0.20000
F606        F  0.67890233  0.62258547  0.25483762    -0.20100
F607        F  0.59208756  0.56867347  0.25915986    -0.20400
F608        F  0.67737758  0.62988063  0.46944436    -0.23100
C609        C  0.92454881  0.55584605  0.42679099    -0.05900
C610        C  0.87017526  0.51848284  0.43301201     0.00000
C611        C  0.85170494  0.47085194  0.41154442    -0.08600
C612        C  0.88732813  0.46338727  0.38584954    -0.06000
C613        C  0.94188374  0.50048242  0.38168782     0.00000
C614        C  0.95975037  0.54831560  0.40153087    -0.08500
C615        C  0.01612379  0.59309348  0.39758522     0.61900
H616        H  0.94065881  0.59276792  0.44161882     0.12600
H617        H  0.87244848  0.42768159  0.36909186     0.12600
C618        C  0.80585640  0.43277111  0.17105642     0.62100
F619        F  0.01810902  0.63806961  0.38770303    -0.23000
F620        F  0.04488206  0.58765498  0.36509829    -0.20400
F621        F  0.03939912  0.59742392  0.43751980    -0.20000
F622        F  0.77433098  0.44710189  0.15179117    -0.20100
F623        F  0.79309641  0.42142847  0.21582632    -0.20400
F624        F  0.79582808  0.38839903  0.15107513    -0.23100
C625        C  0.17377823  0.85134155  0.35329248    -0.05900
C626        C  0.17230961  0.90083682  0.56945339     0.00000
C627        C  0.21204976  0.92668989  0.53631433    -0.08600
C628        C  0.24094455  0.90519684  0.52483496    -0.06000
C629        C  0.23127138  0.85991673  0.54641403     0.00000
C630        C  0.19976032  0.82862183  0.33751420    -0.08500
C631        C  0.19695552  0.78571722  0.36513734     0.61900
H632        H  0.14691675  0.83396274  0.38163182     0.12600
H633        H  0.26785088  0.92107701  0.49650931     0.12600
C634        C  0.22114199  0.97413449  0.51126258     0.62100
F635        F  0.20099956  0.79797759  0.40933434    -0.23000
F636        F  0.23750846  0.77948552  0.35434526    -0.20400
F637        F  0.14991190  0.73991223  0.35964967    -0.20000
F638        F  0.23291641  0.01254155  0.54076110    -0.20100
F639        F  0.17665284  0.96195083  0.48871061    -0.20400
F640        F  0.26223198  0.99331270  0.48064330    -0.23100
C641        C  0.16158156  0.63767223  0.23376783    -0.05900
C642        C  0.15135743  0.67591990  0.24033517     0.00000
C643        C  0.09921224  0.65951713  0.25447722    -0.08600
C644        C  0.06264231  0.60703807  0.26763293    -0.06000
C645        C  0.07469989  0.56934125  0.26492687     0.00000
C646        C  0.12375780  0.58513455  0.24331594    -0.08500
C647        C  0.13776458  0.54836083  0.22674567     0.61900
H648        H  0.19985971  0.64880988  0.22092864     0.12600
H649        H  0.02503743  0.59566435  0.28209179     0.12600
C650        C  0.08039690  0.69606465  0.25380456     0.62100
F651        F  0.15258717  0.56055396  0.18244844    -0.23000
F652        F  0.09617351  0.49808774  0.23039279    -0.20400
F653        F  0.17931660  0.55362109  0.24996679    -0.20000
F654        F  0.13137329  0.75672458  0.47497924    -0.20100
F655        F  0.10035435  0.72950602  0.28836026    -0.20400
F656        F  0.02669672  0.66920162  0.25819208    -0.23100
C657        C  0.42935518  0.89044611  0.41630162    -0.05900
C658        C  0.43093248  0.92832932  0.38782280     0.00000
C659        C  0.38323071  0.92436976  0.37934687    -0.08600
C660        C  0.33729226  0.88657194  0.40306126    -0.06000
C661        C  0.33621671  0.84916528  0.43163289     0.00000
C662        C  0.38283535  0.85055498  0.43750450    -0.08500
C663        C  0.38293133  0.80952966  0.46590873     0.61900
H664        H  0.46441381  0.89004123  0.41944663     0.12600
H665        H  0.30142269  0.88556592  0.39908642     0.12600
C666        C  0.38029522  0.95757353  0.34316268     0.62100
F667        F  0.43105671  0.81487260  0.46465904    -0.23000
F668        F  0.34646700  0.76142895  0.45039628    -0.20400
F669        F  0.35711377  0.80125988  0.25732952    -0.20000
F670        F  0.38867833  0.94358672  0.30209030    -0.20100
F671        F  0.41797000  0.00877991  0.34902696    -0.20400
F672        F  0.33211231  0.95217573  0.34335444    -0.23100
C673        C  0.27090508  0.11631032  0.31603367    -0.05900
C674        C  0.27827644  0.13763496  0.35812479     0.00000
C675        C  0.29561910  0.17486964  0.57616717    -0.08600
C676        C  0.34127803  0.19085841  0.55045744    -0.06000
C677        C  0.35929422  0.18247707  0.29301657     0.00000
C678        C  0.31024558  0.13889215  0.28274133    -0.08500
C679        C  0.29942820  0.11749025  0.23638339     0.61900
H680        H  0.23420557  0.08118688  0.30964040     0.12600
H681        H  0.35447746  0.22167923  0.52584031     0.12600
C682        C  0.26210174  0.19570488  0.56334065     0.62100
F683        F  0.24774382  0.07806578  0.23205637    -0.23000
F684        F  0.33049116  0.09877980  0.22658949    -0.20400
F685        F  0.31016648  0.15622083  0.20584428    -0.20000
F686        F  0.25554668  0.21938719  0.59896588    -0.20100
F687        F  0.21400297  0.15570028  0.54992610    -0.20400
F688        F  0.28414068  0.23144273  0.52833098    -0.23100
C689        C  0.52725878  0.15938948  0.28107434    -0.05900
C690        C  0.49122630  0.14742713  0.24733789     0.00000
C691        C  0.46656566  0.09672016  0.23054109    -0.08600
C692        C  0.47860936  0.06090421  0.24784851    -0.06000
C693        C  0.51393391  0.07220595  0.28262491     0.00000
C694        C  0.53946825  0.12387152  0.29872624    -0.08300
C695        C  0.58049530  0.14379881  0.33404313     0.61900
H696        H  0.54434415  0.19689985  0.29541647     0.12600
H697        H  0.45856197  0.02261236  0.23457413     0.12600
C698        C  0.41547240  0.05675664  0.44218726     0.62100
F699        F  0.61052007  0.19707939  0.33393046    -0.23000
F700        F  0.61406912  0.12790511  0.32606538    -0.20400
F701        F  0.55692568  0.12683316  0.37561905    -0.20000
F702        F  0.43501265  0.08458492  0.40250772    -0.20100
F703        F  0.37843908  0.06494759  0.45949630    -0.20400
F704        F  0.39043822  0.00492712  0.43411201    -0.23100
C705        C  0.48975205  0.32559456  0.45438889    -0.05900
C706        C  0.48865901  0.28483083  0.43308859     0.00000
C707        C  0.49780275  0.29033848  0.38618368    -0.08600
C708        C  0.50290972  0.33377333  0.36252936    -0.06000
C709        C  0.50134632  0.37326627  0.38420823     0.00000
C710        C  0.49602616  0.36902609  0.43098478    -0.08500
C711        C  0.49654442  0.41058477  0.45616228     0.61900
H712        H  0.55641693  0.34866059  0.20772603     0.12600
H713        H  0.50725981  0.33673280  0.32663889     0.12600
C714        C  0.50085744  0.24999083  0.36111448     0.62100
F715        F  0.62324209  0.43235466  0.19610567    -0.23000
F716        F  0.45789029  0.41758148  0.44136193    -0.20400
F717        F  0.54473115  0.45547608  0.44934475    -0.20000
F718        F  0.45526988  0.20224352  0.36789036    -0.20100
F719        F  0.54247798  0.24784044  0.37601257    -0.20400
F720        F  0.50831026  0.26139890  0.31595047    -0.23100
C721        C  0.13166631  0.28310743  0.24925718    -0.05900
C722        C  0.15306999  0.32454537  0.52297907     0.00000
C723        C  0.14989444  0.28059808  0.50618988    -0.08600
C724        C  0.13818832  0.24095350  0.53593752    -0.06000
C725        C  0.12196357  0.24086265  0.57937907     0.00000
C726        C  0.11141309  0.27812860  0.59232566    -0.08500
C727        C  0.09018508  0.26747263  0.32380056     0.61900
H728        H  0.11372594  0.30470776  0.24241593     0.12600
H729        H  0.13944707  0.20847507  0.52452254     0.12600
C730        C  0.15492114  0.27161998  0.45758980     0.62100
F731        F  0.10730523  0.31901422  0.32414118    -0.23000
F732        F  0.09152456  0.25244002  0.36682514    -0.20400
F733        F  0.02672215  0.23078748  0.62509435    -0.20000
F734        F  0.27309206  0.27327729  0.20534433    -0.20100
F735        F  0.16597590  0.31267521  0.42993088    -0.20400
F736        F  0.10796624  0.22899446  0.44516560    -0.23100
C737        C  0.33778772  0.44023230  0.26853853    -0.05900
C738        C  0.33550357  0.43374411  0.22254013     0.00000
C739        C  0.37123317  0.42288869  0.20310113    -0.08600
C740        C  0.41269033  0.42752385  0.22845897    -0.06000
C741        C  0.41546415  0.43442169  0.27461753     0.00000
C742        C  0.37304678  0.43549363  0.29531087    -0.08500
C743        C  0.36005202  0.42974008  0.34502624     0.61900
H744        H  0.30696861  0.44238622  0.28467417     0.12600
H745        H  0.44188895  0.42329953  0.21225984     0.12600
C746        C  0.30611468  0.35634130  0.46894927     0.62100
F747        F  0.30866146  0.38960191  0.35194838    -0.23000
F748        F  0.36511290  0.47430115  0.35973719    -0.20400
F749        F  0.39012704  0.41888907  0.37091187    -0.20000
F750        F  0.27326287  0.35458632  0.43673618    -0.20100
F751        F  0.27695137  0.32390273  0.50450467    -0.20400
F752        F  0.33538950  0.33898561  0.45019240    -0.23100
C753        C  0.12084571  0.39821031  0.39607104    -0.05900
C754        C  0.16856721  0.44159542  0.40905630     0.00000
C755        C  0.17590286  0.48986123  0.39967016    -0.08600
C756        C  0.13295589  0.49262332  0.38421129    -0.06000
C757        C  0.08306726  0.44878620  0.37264848     0.00000
C758        C  0.07810504  0.39975832  0.37935343    -0.08500
C759        C  0.03490942  0.38774854  0.19636841     0.61900
H760        H  0.11459076  0.38264777  0.21360445     0.12600
H761        H  0.13896370  0.53033113  0.38051374     0.12600
C762        C  0.22983185  0.53783983  0.40414514     0.62100
F763        F  0.03865083  0.38711022  0.24206981    -0.23000
F764        F  0.02443117  0.33232196  0.33017123    -0.20400
F765        F  0.99997055  0.40114462  0.18683248    -0.20000
F766        F  0.26530954  0.53335833  0.37877836    -0.20100
F767        F  0.24444951  0.54366481  0.44808447    -0.20400
F768        F  0.23186977  0.58158530  0.38926922    -0.23100
C769        C  0.92115086  0.13909058  0.56426268    -0.05900
C770        C  0.89906549  0.10641017  0.32470462     0.00000
C771        C  0.84636931  0.08944209  0.33350406    -0.08600
C772        C  0.82085790  0.10352998  0.30314062    -0.06000
C773        C  0.84532294  0.13373000  0.26437801     0.00000
C774        C  0.90413089  0.15778149  0.52979700    -0.08500
C775        C  0.94573704  0.19964660  0.49875507     0.61900
H776        H  0.96272454  0.15579624  0.56755993     0.12600
H777        H  0.78259758  0.09383440  0.31141891     0.12600
C778        C  0.81834294  0.05967416  0.37634599     0.62100
F779        F  0.98035311  0.18618293  0.48532165    -0.23000
F780        F  0.97293469  0.24532261  0.52105143    -0.20400
F781        F  0.92517253  0.20714411  0.46076617    -0.20000
F782        F  0.76822984  0.04938452  0.37987890    -0.20100
F783        F  0.84590854  0.08803906  0.41247210    -0.20400
F784        F  0.81429757  0.01296457  0.37814369    -0.23100
C785        C  0.83906557  0.29203251  0.28984211    -0.05900
C786        C  0.83774298  0.28492434  0.24389192     0.00000
C787        C  0.87214902  0.32871681  0.21645220    -0.08600
C788        C  0.90697740  0.37736983  0.23612760    -0.06000
C789        C  0.91370973  0.38231779  0.28259155     0.00000
C790        C  0.87702260  0.33830613  0.30984538    -0.08500
C791        C  0.87592116  0.33522986  0.36037860     0.61900
H792        H  0.81327753  0.25866538  0.31113790     0.12600
H793        H  0.93279770  0.41081863  0.21521808     0.12600
C794        C  0.87519125  0.32250010  0.16699808     0.62100
F795        F  0.91372424  0.37970876  0.37964884    -0.23000
F796        F  0.88229123  0.29600186  0.37418118    -0.20400
F797        F  0.82781951  0.32377790  0.37613642    -0.20000
F798        F  0.82635204  0.30165370  0.14904533    -0.20100
F799        F  0.77228142  0.30234505  0.49365202    -0.20400
F800        F  0.90916579  0.36900512  0.14543494    -0.23100
C801        C  0.72091360  0.11406497  0.38791315    -0.05900
C802        C  0.71828878  0.13742594  0.42665255     0.00000
C803        C  0.66821861  0.12789016  0.43801671    -0.08600
C804        C  0.62209167  0.08718948  0.41728667    -0.06000
C805        C  0.62473554  0.06175779  0.37948847     0.00000
C806        C  0.67623304  0.08165912  0.36193211    -0.08500
C807        C  0.68617257  0.07748823  0.31318770     0.61900
H808        H  0.75928820  0.12522027  0.37560206     0.12600
H809        H  0.58391801  0.07686326  0.42938370     0.12600
C810        C  0.66469438  0.16443810  0.46816418     0.62100
F811        F  0.72851375  0.12408530  0.29779060    -0.23000
F812        F  0.64520155  0.06783060  0.28691073    -0.20400
F813        F  0.69534546  0.03869409  0.30772465    -0.20000
F814        F  0.69433442  0.21369186  0.44967695    -0.20100
F815        F  0.66404917  0.14881536  0.24771425    -0.20400
F816        F  0.59176625  0.12759411  0.21063689    -0.23100
C817        C  0.75393476  0.15256811  0.69843223     0.80100
N818        N  0.77547701  0.12773809  0.71741909    -0.78200
C819        C  0.82969640  0.16492624  0.50060291     0.82500
N820        N  0.85269979  0.21569635  0.50794581    -0.78200
C821        C  0.83555477  0.24428516  0.48971891     0.82600
N822        N  0.77596313  0.20434421  0.70694104    -0.79900
C823        C  0.19955620  0.42652726  0.68781653     0.80100
N824        N  0.25332165  0.45275948  0.44373935    -0.78200
C825        C  0.27318038  0.43389700  0.47494753     0.82500
N826        N  0.23913866  0.39460450  0.50255356    -0.78200
C827        C  0.18742304  0.37402097  0.50119467     0.82600
N828        N  0.16885233  0.37572091  0.69883924    -0.79900
C829        C  0.46769704  0.16006525  0.48397712     0.80100
N830        N  0.42916543  0.14906629  0.51344563    -0.78200
C831        C  0.40995684  0.17899327  0.51825954     0.82500
N832        N  0.42265679  0.23322764  0.74931782    -0.78200
C833        C  0.46097736  0.24942848  0.71712963     0.82600
N834        N  0.48604734  0.22292299  0.71335946    -0.79900
C835        C  0.27669658  0.80580815  0.70456790     0.80100
N836        N  0.26737081  0.83361108  0.73289204    -0.78200
C837        C  0.24438797  0.82763508  0.52205050     0.82500
N838        N  0.20917742  0.77645388  0.52201336    -0.78200
C839        C  0.21274463  0.74574709  0.49290742     0.82600
N840        N  0.23958123  0.75388128  0.70105951    -0.79900
C841        C  0.83506609  0.53592658  0.72014005     0.80100
N842        N  0.78356085  0.50945796  0.46334383    -0.78200
C843        C  0.75977252  0.52630082  0.49197586     0.82500
N844        N  0.79038607  0.56499394  0.51901666    -0.78200
C845        C  0.84253200  0.58913738  0.51915378     0.82600
N846        N  0.86213696  0.57806068  0.74574372    -0.79900
C847        C  0.56966755  0.78143234  0.45576708     0.80100
N848        N  0.52138672  0.73036911  0.71311229    -0.78200
C849        C  0.54959253  0.70697133  0.70831908     0.82500
N850        N  0.59832113  0.73091695  0.72424263    -0.78200
C851        C  0.62022119  0.77615502  0.74418118     0.82600
N852        N  0.62200675  0.80995327  0.45956341    -0.79900
O853        O  0.99905094  0.05356724  0.83840480    -0.88500
C854        C  0.08487999  0.06516075  0.69236331     0.87500
Mg855      Mg  0.91997961  0.99506959  0.83344151     1.58100
O856        O  0.11474782  0.03236912  0.84318196    -0.88200
O857        O  0.07233781  0.09543202  0.80055672    -0.75600
C858        C  0.92171663  0.78773303  0.59579610     0.92600
O859        O  0.95562723  0.01311642  0.69088364    -0.75400
O860        O  0.89009661  0.80252813  0.59904368    -0.82900
Mg861      Mg  0.01268824  0.09130536  0.65419898     1.58000
C862        C  0.13595244  0.91205976  0.84019776     0.92500
O863        O  0.06872112  0.16713613  0.85732771    -0.81100
H864        H  0.13997290  0.04843146  0.77979631    -0.06500
C865        C  0.01588248  0.90734434  0.67153716     0.87400
O866        O  0.94165115  0.95392581  0.78374962    -0.75600
O867        O  0.07449236  0.07695150  0.65639749    -0.88400
O868        O  0.15494270  0.95542757  0.85820427    -0.81200
C869        C  0.22697714  0.10768367  0.63238100     0.92600
C870        C  0.11661002  0.19732441  0.84787402     0.92500
Mg871      Mg  0.02564219  0.89840847  0.83158161     1.58000
O872        O  0.97044591  0.81913811  0.60026073    -0.81100
O873        O  0.08320834  0.97356050  0.79289339    -0.75400
O874        O  0.20087345  0.12826151  0.63866409    -0.81200
O875        O  0.95184371  0.11245159  0.64443918    -0.82900
O876        O  0.84513704  0.86667962  0.83101397    -0.81300
C877        C  0.11431696  0.01953910  0.80450792     0.86900
O878        O  0.96668397  0.91440172  0.82708025    -0.88400
O879        O  0.04282903  0.93191698  0.63822996    -0.88500
O880        O  0.96645224  0.88612577  0.67243407    -0.75600
Mg881      Mg  0.13320859  0.10887812  0.85196692     1.58000
O882        O  0.20607515  0.05986566  0.64007583    -0.82900
H883        H  0.00219794  0.07286780  0.77405718    -0.06700
O884        O  0.92672525  0.95640922  0.63817162    -0.88200
H885        H  0.90449010  0.93607506  0.70178186    -0.06500
H886        H  0.96450051  0.90741519  0.76107771    -0.06700
C887        C  0.92765819  0.96697358  0.67777787     0.86900
C888        C  0.02322653  0.07387029  0.80317892     0.87500
C889        C  0.95769769  0.92402271  0.78952217     0.87500
H890        H  0.03469007  0.90400150  0.70052695    -0.06600
O891        O  0.10098572  0.03491550  0.69487443    -0.75700
Mg892      Mg  0.90850014  0.88163559  0.62030801     1.58000
H893        H  0.07937369  0.08031295  0.72223944    -0.06700
C894        C  0.90837355  0.08046020  0.62777029     0.92500
O895        O  0.83819642  0.93446748  0.82816609    -0.82900
C896        C  0.82138637  0.88847751  0.81927947     0.92600
O897        O  0.15034166  0.18817707  0.86102180    -0.82900
Mg898      Mg  0.12256034  0.99506407  0.64335404     1.58200
O899        O  0.89073090  0.03312974  0.63359720    -0.81200
O900        O  0.08759506  0.88183681  0.83413692    -0.82900
C901        C  0.05452210  0.48417522  0.62012464     0.86300
C902        C  0.08448661  0.53224550  0.58986578    -0.53900
C903        C  0.05730077  0.54086740  0.55959168     0.09300
C904        C  0.99609666  0.50088977  0.56680328     0.20200
C905        C  0.01612541  0.49492833  0.64502726    -0.54600
C906        C  0.98400406  0.50285092  0.61818548     0.09400
C907        C  0.01824047  0.43934351  0.59058501    -0.54200
C908        C  0.98803659  0.44628980  0.56181904     0.09900
H909        H  0.12603024  0.56001280  0.59344869     0.14500
H910        H  0.97173655  0.50716058  0.54378370     0.00200
H911        H  0.01502706  0.49858572  0.68046894     0.14800
H912        H  0.01336962  0.40211035  0.59553509     0.14500
C913        C  0.52642245  0.93058914  0.53961819     0.86300
C914        C  0.47751134  0.90293665  0.56967996    -0.53900
C915        C  0.47048045  0.93240176  0.59792108     0.09300
C916        C  0.51447622  0.99143487  0.59276700     0.20200
C917        C  0.51971739  0.97269230  0.51549644    -0.54600
C918        C  0.51494512  0.00600129  0.54288148     0.09400
C919        C  0.57147203  0.96198451  0.57217469    -0.54200
C920        C  0.56826893  0.99678197  0.59810534     0.09900
H921        H  0.44824925  0.86208811  0.56792496     0.14500
H922        H  0.50753381  0.01406055  0.61623628     0.00200
H923        H  0.51642376  0.97529302  0.48019736     0.14800
H924        H  0.60444597  0.95770394  0.57321729     0.14500
C925        C  0.47039131  0.47586521  0.55373607     0.86300
C926        C  0.48011728  0.51156821  0.59149827    -0.53900
C927        C  0.52203323  0.52613029  0.61677076     0.09300
C928        C  0.54845366  0.49445535  0.60471024     0.20200
C929        C  0.52320220  0.49872642  0.52865085    -0.54600
C930        C  0.56388193  0.50492996  0.55330307     0.09400
C931        C  0.46352380  0.42758443  0.57887298    -0.54200
C932        C  0.50279809  0.43554091  0.60760047     0.09900
H933        H  0.45502265  0.52562545  0.59774239     0.14500
H934        H  0.58199610  0.50491341  0.62545727     0.00200
H935        H  0.52675019  0.50625245  0.49309542     0.14800
H936        H  0.42938607  0.38963582  0.57430178     0.14500
C937        C  0.70656473  0.85381355  0.74751795    -0.05900
C938        C  0.67354144  0.80176588  0.75933532     0.00000
C939        C  0.69083651  0.77682735  0.78712691    -0.08600
C940        C  0.74034268  0.80655415  0.80526154    -0.06000
C941        C  0.77239910  0.85948661  0.79561626     0.00000
C942        C  0.75646063  0.88342727  0.76459377    -0.08500
C943        C  0.79096738  0.93955936  0.74910463     0.61900
H944        H  0.69233040  0.87141545  0.72532610     0.12600
H945        H  0.75379166  0.78891551  0.82821380     0.12600
C946        C  0.71973672  0.74595681  0.46571965     0.62100
F947        F  0.79390386  0.97121511  0.78221834    -0.23000
F948        F  0.77157311  0.95007553  0.71185554    -0.20400
F949        F  0.84822199  0.98684683  0.50229984    -0.20000
F950        F  0.64844848  0.69190453  0.76095217    -0.20100
F951        F  0.67128483  0.70985721  0.48410555    -0.20400
F952        F  0.75521463  0.73456944  0.48119518    -0.23100
C953        C  0.56175621  0.85759391  0.45043693    -0.05900
C954        C  0.54311041  0.80907162  0.47092930     0.00000
C955        C  0.51904161  0.80056883  0.51356190    -0.08600
C956        C  0.51502794  0.84016618  0.53353760    -0.06000
C957        C  0.53266683  0.88926974  0.51272151     0.00000
C958        C  0.55951958  0.89791348  0.47071520    -0.08500
C959        C  0.58874288  0.94974489  0.44697750     0.61900
H960        H  0.58218561  0.86510768  0.41872923     0.12600
H961        H  0.49961130  0.83297970  0.56719775     0.12600
C962        C  0.49852551  0.74971532  0.53836824     0.62100
F963        F  0.55339830  0.95698783  0.42626066    -0.23000
F964        F  0.62365355  0.95343998  0.41485802    -0.20400
F965        F  0.61697480  0.98820081  0.47639665    -0.20000
F966        F  0.53883481  0.74234743  0.54588789    -0.20100
F967        F  0.46129644  0.71012316  0.51312313    -0.20400
F968        F  0.47560184  0.74754314  0.57904648    -0.23100
C969        C  0.49548924  0.56522686  0.67758772    -0.05900
C970        C  0.53549722  0.57088447  0.64810677     0.00000
C971        C  0.57716672  0.62276388  0.63884355    -0.08600
C972        C  0.57429760  0.66443909  0.65364311    -0.06000
C973        C  0.53498935  0.65893211  0.68281420     0.00000
C974        C  0.49576872  0.60786511  0.69634344    -0.08500
C975        C  0.46696044  0.63178255  0.38966128     0.61900
H976        H  0.46270285  0.52671689  0.68480086     0.12600
H977        H  0.60652461  0.70319595  0.64486400     0.12600
C978        C  0.62765380  0.63816792  0.61552499     0.62100
F979        F  0.45464882  0.65027800  0.42589221    -0.23000
F980        F  0.42155420  0.54731877  0.74159203    -0.20400
F981        F  0.48645818  0.66885318  0.35596160    -0.20000
F982        F  0.63351893  0.66688293  0.57753239    -0.20100
F983        F  0.63009229  0.59646848  0.60513432    -0.20400
F984        F  0.66876462  0.66849404  0.64309896    -0.23100
C985        C  0.93188520  0.73234695  0.80721821    -0.05900
C986        C  0.90369216  0.73468935  0.58201395     0.00000
C987        C  0.85773469  0.68971955  0.59871297    -0.08600
C988        C  0.84306012  0.64208128  0.58056335    -0.06000
C989        C  0.87086143  0.63797433  0.54459600     0.00000
C990        C  0.91305487  0.68669722  0.78398473    -0.08500
C991        C  0.94229355  0.68827403  0.74220638     0.61900
H992        H  0.96667003  0.76760648  0.79497833     0.12600
H993        H  0.80735518  0.60767191  0.59268056     0.12600
C994        C  0.82379627  0.69182748  0.63486493     0.62100
F995        F  0.98628545  0.73668538  0.73307676    -0.23000
F996        F  0.91016497  0.67470992  0.70605054    -0.20400
F997        F  0.95838921  0.65452684  0.74759026    -0.20000
F998        F  0.80006654  0.71613919  0.61831642    -0.20100
F999        F  0.85406346  0.71858517  0.67048940    -0.20400
F1000       F  0.78487586  0.64314269  0.65032140    -0.23100
C1001       C  0.61278667  0.46418841  0.52249501    -0.05900
C1002       C  0.61194515  0.50914000  0.53009708     0.00000
C1003       C  0.65546048  0.55586912  0.51185424    -0.08600
C1004       C  0.69947513  0.55712116  0.49411211    -0.06000
C1005       C  0.70361613  0.51379574  0.49233495     0.00000
C1006       C  0.65779540  0.46575204  0.50468596    -0.08500
C1007       C  0.65662521  0.41665987  0.49894567     0.61900
H1008       H  0.57825531  0.42744404  0.53219118     0.12600
H1009       H  0.70986262  0.56995740  0.72061153     0.12600
C1010       C  0.65946262  0.60666504  0.51073618     0.62100
F1011       F  0.60827679  0.37355934  0.51071090    -0.23000
F1012       F  0.69388026  0.41699287  0.52510753    -0.20400
F1013       F  0.66723830  0.41305814  0.45483367    -0.20000
F1014       F  0.69572840  0.63871141  0.54114387    -0.20100
F1015       F  0.61211733  0.60147585  0.51862287    -0.20400
F1016       F  0.62404955  0.56898704  0.69079938    -0.23100
C1017       C  0.90452173  0.56169064  0.66041407    -0.05900
C1018       C  0.86662380  0.52304490  0.68965981     0.00000
C1019       C  0.86533266  0.47657784  0.69318698    -0.08600
C1020       C  0.90223645  0.47098423  0.66827014    -0.06000
C1021       C  0.94111532  0.50982913  0.63917188     0.00000
C1022       C  0.94055597  0.55563424  0.63491427    -0.08500
C1023       C  0.97623617  0.59734884  0.60193691     0.61900
H1024       H  0.90551438  0.59719752  0.65749378     0.12600
H1025       H  0.90072384  0.43572219  0.67158392     0.12600
C1026       C  0.79513742  0.42694457  0.41714205     0.62100
F1027       F  0.97406206  0.64082675  0.60513165    -0.23000
F1028       F  0.96006559  0.57787902  0.56022203    -0.20400
F1029       F  0.02721100  0.61164885  0.60866026    -0.20000
F1030       F  0.76301655  0.44134578  0.39949443    -0.20100
F1031       F  0.78286665  0.41420704  0.46184729    -0.20400
F1032       F  0.78527628  0.38339741  0.39575475    -0.23100
C1033       C  0.16671738  0.85924674  0.59391740    -0.05900
C1034       C  0.16999762  0.89514654  0.82515125     0.00000
C1035       C  0.20161556  0.91633109  0.78618649    -0.08600
C1036       C  0.22321990  0.89028318  0.76769112    -0.06000
C1037       C  0.21204826  0.84312061  0.78612712     0.00000
C1038       C  0.19759996  0.83985238  0.58422005    -0.08500
C1039       C  0.19222350  0.79753951  0.61450767     0.61900
H1040       H  0.13787091  0.84173392  0.62091609     0.12600
H1041       H  0.24481127  0.90405995  0.73631753     0.12600
C1042       C  0.20745192  0.96265701  0.76162762     0.62100
F1043       F  0.19353473  0.81138200  0.65807970    -0.23000
F1044       F  0.23224704  0.78941304  0.60793449    -0.20400
F1045       F  0.14506931  0.75226937  0.60754756    -0.20000
F1046       F  0.22633807  0.00355573  0.78971086    -0.20100
F1047       F  0.15931003  0.95029517  0.74658231    -0.20400
F1048       F  0.24155604  0.97824740  0.72532949    -0.23100
C1049       C  0.17843914  0.65124717  0.49529765    -0.05900
C1050       C  0.16816155  0.69009719  0.49451359     0.00000
C1051       C  0.11559333  0.67521347  0.50381583    -0.08600
C1052       C  0.07861058  0.62493338  0.52103372    -0.06000
C1053       C  0.09017017  0.58709251  0.52707519     0.00000
C1054       C  0.14002151  0.60000672  0.50929033    -0.08500
C1055       C  0.15510765  0.56150403  0.50239407     0.61900
H1056       H  0.21744637  0.66114366  0.48611643     0.12600
H1057       H  0.04015343  0.61550621  0.52897412     0.12600
C1058       C  0.09536051  0.71000388  0.49521088     0.62100
F1059       F  0.16793737  0.56382172  0.45813605    -0.23000
F1060       F  0.11556470  0.51160778  0.51277699    -0.20400
F1061       F  0.19830380  0.57448752  0.52722388    -0.20000
F1062       F  0.10730744  0.72912593  0.69419379    -0.20100
F1063       F  0.07832438  0.71865440  0.53486443    -0.20400
F1064       F  0.05406937  0.68582008  0.46690542    -0.23100
C1065       C  0.41693246  0.86611936  0.65822087    -0.05900
C1066       C  0.42258521  0.90516951  0.62866567     0.00000
C1067       C  0.37833968  0.90848627  0.62240820    -0.08600
C1068       C  0.33168881  0.87506050  0.64746022    -0.06000
C1069       C  0.32579551  0.83542352  0.67609457     0.00000
C1070       C  0.36970132  0.83172814  0.68227979    -0.08500
C1071       C  0.36681168  0.79239949  0.71515402     0.61900
H1072       H  0.44975659  0.86177176  0.66143670     0.12600
H1073       H  0.29866435  0.87906580  0.64417454     0.12600
C1074       C  0.37893413  0.94436534  0.58698994     0.62100
F1075       F  0.41358710  0.79502621  0.71697466    -0.23000
F1076       F  0.32851749  0.74339778  0.70284755    -0.20400
F1077       F  0.37039921  0.81246560  0.50958525    -0.20000
F1078       F  0.38633754  0.93023175  0.54561037    -0.20100
F1079       F  0.41872419  0.99434681  0.59426298    -0.20400
F1080       F  0.33267486  0.94283153  0.58690843    -0.23100
C1081       C  0.30927286  0.11362634  0.61508983    -0.05900
C1082       C  0.27991170  0.13609025  0.61011656     0.00000
C1083       C  0.31255685  0.19157474  0.86019266    -0.08600
C1084       C  0.35217923  0.20687555  0.82726210    -0.06000
C1085       C  0.36695994  0.16425070  0.55211761     0.00000
C1086       C  0.34890056  0.12304289  0.58444101    -0.08500
C1087       C  0.36680263  0.08541118  0.58527605     0.61900
H1088       H  0.29694719  0.08405921  0.64084945     0.12600
H1089       H  0.37156459  0.24541273  0.81264332     0.12600
C1090       C  0.29971014  0.23054372  0.87387190     0.62100
F1091       F  0.34240605  0.04826105  0.61901773    -0.23000
F1092       F  0.42004088  0.11119405  0.59133089    -0.20400
F1093       F  0.35417819  0.05947529  0.54588535    -0.20000
F1094       F  0.27849854  0.22025335  0.91655201    -0.20100
F1095       F  0.26512634  0.23034505  0.84428673    -0.20400
F1096       F  0.34463628  0.27934698  0.87349294    -0.23100
C1097       C  0.52491073  0.13782223  0.52114932    -0.05900
C1098       C  0.48842257  0.12556503  0.48816118     0.00000
C1099       C  0.45979586  0.07390760  0.47410023    -0.08600
C1100       C  0.47167897  0.03785186  0.49093276    -0.06000
C1101       C  0.50766137  0.04942263  0.52525110     0.00000
C1102       C  0.53418227  0.10140250  0.54097557    -0.08300
C1103       C  0.57247497  0.12092841  0.57849627     0.61900
H1104       H  0.54348297  0.17622497  0.53395370     0.12600
H1105       H  0.45051207  0.99905294  0.47885059     0.12600
C1106       C  0.42418630  0.07799340  0.69211452     0.62100
F1107       F  0.59979181  0.17395214  0.58168525    -0.23000
F1108       F  0.60885872  0.10878192  0.57114749    -0.20400
F1109       F  0.54631511  0.10026876  0.61855684    -0.20000
F1110       F  0.43921229  0.06115804  0.65636362    -0.20100
F1111       F  0.41752692  0.11662980  0.67732042    -0.20400
F1112       F  0.37685022  0.03753270  0.70908505    -0.23100
C1113       C  0.52450434  0.33669940  0.67785920    -0.05900
C1114       C  0.47288332  0.29544368  0.68675146     0.00000
C1115       C  0.43265567  0.30146672  0.67031379    -0.08600
C1116       C  0.44526293  0.34765145  0.64734942    -0.06000
C1117       C  0.49682481  0.38960675  0.63713860     0.00000
C1118       C  0.53747096  0.38345573  0.65445136    -0.08500
C1119       C  0.59457714  0.42611887  0.65199308     0.61900
H1120       H  0.48408487  0.32240404  0.49017235     0.12600
H1121       H  0.41313848  0.35118168  0.63839274     0.12600
C1122       C  0.37532320  0.25900797  0.67638621     0.62100
F1123       F  0.48832345  0.39839595  0.50102900    -0.23000
F1124       F  0.60212132  0.46524369  0.67828380    -0.20400
F1125       F  0.60998421  0.44410157  0.60914629    -0.20000
F1126       F  0.35809688  0.25956502  0.71894063    -0.20100
F1127       F  0.36822943  0.21160237  0.66908525    -0.20400
F1128       F  0.34462440  0.26527636  0.64672610    -0.23100
C1129       C  0.13148652  0.32242054  0.56493716    -0.05900
C1130       C  0.15857963  0.30123978  0.73837194     0.00000
C1131       C  0.17547070  0.26688168  0.74074951    -0.08600
C1132       C  0.16326030  0.23640413  0.77894171    -0.06000
C1133       C  0.13130923  0.23621594  0.81290828     0.00000
C1134       C  0.10883080  0.26607769  0.80814261    -0.08500
C1135       C  0.07763060  0.26987614  0.63286838     0.61900
H1136       H  0.13069509  0.35520593  0.57590487     0.12600
H1137       H  0.17764494  0.21106831  0.78148874     0.12600
C1138       C  0.20847015  0.26306691  0.70478843     0.62100
F1139       F  0.07800157  0.31368150  0.64256450    -0.23000
F1140       F  0.09468921  0.25576778  0.66919693    -0.20400
F1141       F  0.02567975  0.21885000  0.84540542    -0.20000
F1142       F  0.19326388  0.26104387  0.45170197    -0.20100
F1143       F  0.20879853  0.28672341  0.66515038    -0.20400
F1144       F  0.18856874  0.21183603  0.69663417    -0.23100
C1145       C  0.36857588  0.49873962  0.49265891    -0.05900
C1146       C  0.32985579  0.44917659  0.47971372     0.00000
C1147       C  0.34165471  0.41038342  0.48523002    -0.08600
C1148       C  0.38650501  0.42035897  0.50837259    -0.06000
C1149       C  0.42452866  0.46929339  0.52365861     0.00000
C1150       C  0.41663014  0.51026022  0.51170454    -0.08500
C1151       C  0.45579239  0.56690532  0.51978487     0.61900
H1152       H  0.36057583  0.52882594  0.48919710     0.12600
H1153       H  0.39183653  0.38881822  0.51346832     0.12600
C1154       C  0.35529286  0.42760411  0.65177562     0.62100
F1155       F  0.45637983  0.59568241  0.48438969    -0.23000
F1156       F  0.50634186  0.57910203  0.52371588    -0.20400
F1157       F  0.44086660  0.58186496  0.55704409    -0.20000
F1158       F  0.36018279  0.47022096  0.63065325    -0.20100
F1159       F  0.30707806  0.38452748  0.64271492    -0.20400
F1160       F  0.39241637  0.42011145  0.63484039    -0.23100
C1161       C  0.12412641  0.43466968  0.69761325    -0.05900
C1162       C  0.17089014  0.45130481  0.67404273     0.00000
C1163       C  0.17915167  0.47694603  0.63275680    -0.08600
C1164       C  0.14132266  0.48700339  0.61793707    -0.06000
C1165       C  0.09480068  0.47331846  0.64271763     0.00000
C1166       C  0.08498112  0.44193971  0.68164553    -0.08500
C1167       C  0.02808696  0.34714909  0.37374339     0.61900
H1168       H  0.11623082  0.36121905  0.40157164     0.12600
H1169       H  0.14737759  0.50350125  0.58504717     0.12600
C1170       C  0.22644917  0.49121350  0.60357730     0.62100
F1171       F  0.02720581  0.30912181  0.39975603    -0.23000
F1172       F  0.99402506  0.38667625  0.67734700    -0.20400
F1173       F  0.98496896  0.34784035  0.38710237    -0.20000
F1174       F  0.22797868  0.44802659  0.59589754    -0.20100
F1175       F  0.27142562  0.52711580  0.62468780    -0.20400
F1176       F  0.22568477  0.51204318  0.56272381    -0.23100
C1177       C  0.91581838  0.13282536  0.80092887    -0.05900
C1178       C  0.88605499  0.09871180  0.59377842     0.00000
C1179       C  0.83179679  0.07541530  0.58796232    -0.08600
C1180       C  0.81500687  0.09385720  0.55285557    -0.06000
C1181       C  0.84980960  0.13650627  0.52530076     0.00000
C1182       C  0.89480600  0.14841648  0.76755066    -0.08500
C1183       C  0.93237844  0.18845207  0.73311661     0.61900
H1184       H  0.95747554  0.14901329  0.80026232     0.12600
H1185       H  0.77437484  0.07692253  0.54852527     0.12600
C1186       C  0.79201031  0.03493012  0.62121555     0.62100
F1187       F  0.96862125  0.17720124  0.71948807    -0.23000
F1188       F  0.95853972  0.23640083  0.75181932    -0.20400
F1189       F  0.90722045  0.19000235  0.69564471    -0.20000
F1190       F  0.74146010  0.01949123  0.61119015    -0.20100
F1191       F  0.80214080  0.05505429  0.66324911    -0.20400
F1192       F  0.79428670  0.99152409  0.62186486    -0.23100
C1193       C  0.92396073  0.32494092  0.48936947    -0.05900
C1194       C  0.87009981  0.30205137  0.49770049     0.00000
C1195       C  0.85504487  0.33078051  0.52283372    -0.08600
C1196       C  0.89420148  0.37974403  0.53985366    -0.06000
C1197       C  0.94842901  0.40087978  0.53381399     0.00000
C1198       C  0.96317359  0.37272477  0.50688927    -0.08500
C1199       C  0.02002523  0.39316790  0.49427108     0.61900
H1200       H  0.93534478  0.30308538  0.47021576     0.12600
H1201       H  0.88261864  0.40042660  0.56049152     0.12600
C1202       C  0.79785895  0.30873862  0.53302772     0.62100
F1203       F  0.02430631  0.35992786  0.46756079    -0.23000
F1204       F  0.05009045  0.39959717  0.53042030    -0.20400
F1205       F  0.04107181  0.43942163  0.47130629    -0.20000
F1206       F  0.77586000  0.26159802  0.55520149    -0.20100
F1207       F  0.88403430  0.28727032  0.65791215    -0.20400
F1208       F  0.79068992  0.34080822  0.55935368    -0.23100
C1209       C  0.71155667  0.09792173  0.63117848    -0.05900
C1210       C  0.70641375  0.12081394  0.66916293     0.00000
C1211       C  0.65521364  0.10853609  0.67970645    -0.08600
C1212       C  0.61089118  0.06562941  0.65934554    -0.06000
C1213       C  0.61612773  0.04072720  0.62233481     0.00000
C1214       C  0.66805768  0.06373173  0.60491024    -0.08500
C1215       C  0.67831434  0.06366350  0.55551140     0.61900
H1216       H  0.75067633  0.11064892  0.61959484     0.12600
H1217       H  0.57198364  0.05317149  0.67103674     0.12600
C1218       C  0.64833024  0.14421677  0.70830473     0.62100
F1219       F  0.72185898  0.11045607  0.54263623    -0.23000
F1220       F  0.63804479  0.05837923  0.53050099    -0.20400
F1221       F  0.68574457  0.02458735  0.54564695    -0.20000
F1222       F  0.67435557  0.19269077  0.68805676    -0.20100
F1223       F  0.68337423  0.16402569  0.50963462    -0.20400
F1224       F  0.61403425  0.15206310  0.47269568    -0.23100
C1225       C  0.75307068  0.14738749  0.95773944     0.80100
N1226       N  0.77018387  0.11720924  0.97421665    -0.78200
C1227       C  0.81780899  0.15304923  0.74384331     0.82500
N1228       N  0.83854713  0.20332816  0.75160553    -0.78200
C1229       C  0.81911347  0.22994922  0.73372789     0.82600
N1230       N  0.78037773  0.19922030  0.96839836    -0.79900
C1231       C  0.19671105  0.42804543  0.94887012     0.80100
N1232       N  0.25279063  0.45200695  0.69375693    -0.78200
C1233       C  0.27336651  0.42386698  0.70758691     0.82500
N1234       N  0.24129482  0.37347010  0.71694920    -0.78200
C1235       C  0.18963675  0.34927582  0.71317136     0.82600
N1236       N  0.16693657  0.38328416  0.97250041    -0.79900
C1237       C  0.47079703  0.18047880  0.74118812     0.80100
N1238       N  0.43252892  0.16659496  0.77156896    -0.78200
C1239       C  0.40775132  0.19137292  0.77626333     0.82500
N1240       N  0.41368813  0.21013995  0.98120991    -0.78200
C1241       C  0.45608119  0.22756699  0.95322477     0.82600
N1242       N  0.47977674  0.19970921  0.95176393    -0.79900
C1243       C  0.26925898  0.79935922  0.95413228     0.80100
N1244       N  0.25923852  0.82508590  0.98408963    -0.78200
C1245       C  0.22298578  0.81134288  0.75810604     0.82500
N1246       N  0.18607904  0.76080344  0.75374049    -0.78200
C1247       C  0.19326680  0.73135535  0.72555711     0.82600
N1248       N  0.23481564  0.74652205  0.95143573    -0.79900
C1249       C  0.83091443  0.52657346  0.96423198     0.80100
N1250       N  0.78102799  0.50864393  0.72197787    -0.78200
C1251       C  0.75579039  0.52374370  0.75002250     0.82500
N1252       N  0.78465906  0.56574623  0.77477432    -0.78200
C1253       C  0.83740226  0.59329219  0.77312136     0.82600
N1254       N  0.85762077  0.56475826  0.99393304    -0.79900
C1255       C  0.54461507  0.77759922  0.73399961     0.80100
N1256       N  0.53776034  0.72788093  0.93570604    -0.78200
C1257       C  0.56769668  0.70743651  0.92495733     0.82500
N1258       N  0.61963185  0.73664648  0.93304617    -0.78200
C1259       C  0.64268065  0.78356573  0.95057255     0.82600
N1260       N  0.59376728  0.79936264  0.74843091    -0.79900
O1261       O  0.98014244  0.03686303  0.09209829    -0.88500
C1262       C  0.08550406  0.06895864  0.94356703     0.87500
Mg1263     Mg  0.90150216  0.97709861  0.09078195     1.58100
O1264       O  0.09595411  0.01318355  0.08877463    -0.88200
O1265       O  0.04991280  0.07566743  0.04973498    -0.75600
C1266       C  0.92275710  0.78719005  0.85945684     0.92600
O1267       O  0.95681275  0.02090408  0.93882904    -0.75400
O1268       O  0.89086040  0.80158533  0.86312361    -0.82900
Mg1269     Mg  0.01609109  0.09551061  0.89765967     1.58000
C1270       C  0.11935335  0.89438243  0.08646120     0.92500
O1271       O  0.05217691  0.15133191  0.11371899    -0.81100
H1272       H  0.12384294  0.02945305  0.02632322    -0.06500
C1273       C  0.01892198  0.91164603  0.92942317     0.87400
O1274       O  0.92252155  0.93782331  0.03752616    -0.75600
O1275       O  0.07702140  0.08037776  0.90657848    -0.88400
O1276       O  0.13834497  0.93847334  0.10249413    -0.81200
C1277       C  0.23035309  0.11080750  0.89480245     0.92600
C1278       C  0.09928883  0.18064659  0.10104847     0.92500
Mg1279     Mg  0.00983545  0.88133689  0.08016043     1.58000
O1280       O  0.97150545  0.81861298  0.86381144    -0.81100
O1281       O  0.06678496  0.95452007  0.03901039    -0.75400
O1282       O  0.20353242  0.13114985  0.89529372    -0.81200
O1283       O  0.95635020  0.11555271  0.87955295    -0.82900
O1284       O  0.83455931  0.85441557  0.07921574    -0.81300
C1285       C  0.09710932  0.00057572  0.05046316     0.86900
O1286       O  0.95227744  0.89974947  0.07747409    -0.88400
O1287       O  0.04520039  0.93392309  0.89531315    -0.88500
O1288       O  0.96967877  0.89097555  0.93076362    -0.75600
Mg1289     Mg  0.11450065  0.08942709  0.09650992     1.58000
O1290       O  0.20808353  0.06239066  0.90030570    -0.82900
H1291       H  0.97836136  0.05535684  0.02837312    -0.06700
O1292       O  0.92863135  0.95873323  0.89118292    -0.88200
H1293       H  0.90279017  0.94550201  0.95447278    -0.06500
H1294       H  0.94792051  0.89471533  0.01140216    -0.06700
C1295       C  0.92821468  0.97346834  0.92913319     0.86900
C1296       C  0.00150449  0.05616511  0.05575049     0.87500
C1297       C  0.94142625  0.90994509  0.04089382     0.87500
H1298       H  0.03819327  0.90990466  0.95873897    -0.06600
O1299       O  0.10119974  0.03847941  0.94813252    -0.75700
Mg1300     Mg  0.90950156  0.88177890  0.87935821     1.58000
H1301       H  0.07920589  0.08506464  0.97246695    -0.06700
C1302       C  0.91101911  0.08177429  0.86734025     0.92500
O1303       O  0.81860755  0.91482103  0.09016818    -0.82900
C1304       C  0.80957466  0.87566326  0.06999720     0.92600
O1305       O  0.13265808  0.16844612  0.10530703    -0.82900
Mg1306     Mg  0.12486660  0.99657536  0.90023608     1.58200
O1307       O  0.89362427  0.03524191  0.87715345    -0.81200
O1308       O  0.07083572  0.86319000  0.08194086    -0.82900
C1309       C  0.04829602  0.47263709  0.85596778     0.86300
C1310       C  0.07649262  0.51743749  0.82315281    -0.53900
C1311       C  0.04762813  0.52576863  0.79461765     0.09300
C1312       C  0.98648509  0.48972520  0.80785140     0.20200
C1313       C  0.01606989  0.48926616  0.88343175    -0.54600
C1314       C  0.98232405  0.49775573  0.85947005     0.09400
C1315       C  0.00650187  0.42591835  0.82930746    -0.54200
C1316       C  0.97147324  0.43210422  0.80606064     0.09900
H1317       H  0.11776409  0.54598653  0.82599691     0.14500
H1318       H  0.96082581  0.49625254  0.78691866     0.00200
H1319       H  0.01885134  0.49265727  0.91929097     0.14800
H1320       H  0.00283026  0.38895422  0.83148772     0.14500
C1321       C  0.51582430  0.94267389  0.79782176     0.86300
C1322       C  0.46600169  0.91782761  0.82599385    -0.53900
C1323       C  0.46094414  0.94808113  0.85446261     0.09300
C1324       C  0.50794602  0.00689472  0.84975823     0.20200
C1325       C  0.51417912  0.98720309  0.77257970    -0.54600
C1326       C  0.51082511  0.02185736  0.79935089     0.09400
C1327       C  0.56028663  0.97177027  0.83100296    -0.54200
C1328       C  0.56036665  0.00908026  0.85561077     0.09900
H1329       H  0.43565904  0.87716426  0.82406299     0.14500
H1330       H  0.50277167  0.03144840  0.87253460     0.00200
H1331       H  0.51460117  0.99155651  0.73706289     0.14800
H1332       H  0.59117516  0.96445166  0.83297743     0.14500
C1333       C  0.45235376  0.44325312  0.79589386     0.86300
C1334       C  0.46957009  0.48932867  0.82464885    -0.53900
C1335       C  0.50825767  0.50271365  0.85351851     0.09300
C1336       C  0.53127947  0.46724156  0.84724289     0.20200
C1337       C  0.50362171  0.45903224  0.76980941    -0.54600
C1338       C  0.54540066  0.47158500  0.79658011     0.09400
C1339       C  0.44411924  0.39832969  0.82655726    -0.54200
C1340       C  0.48522337  0.40952612  0.85322071     0.09900
H1341       H  0.45328350  0.51278996  0.81949485     0.14500
H1342       H  0.56443646  0.47596867  0.86810550     0.00200
H1343       H  0.50705511  0.45934762  0.73388904     0.14800
H1344       H  0.40941257  0.35986440  0.82514971     0.14500
C1345       C  0.71905312  0.86225811  0.97752351    -0.05900
C1346       C  0.69601674  0.81011022  0.96836481     0.00000
C1347       C  0.71881746  0.78385287  0.98569066    -0.08600
C1348       C  0.75510227  0.80671356  0.01925608    -0.06000
C1349       C  0.77232515  0.85612253  0.03342809     0.00000
C1350       C  0.75730095  0.88626915  0.00962156    -0.08500
C1351       C  0.77945643  0.94269677  0.01815085     0.61900
H1352       H  0.70388446  0.88316878  0.96162390     0.12600
H1353       H  0.76936850  0.78521792  0.03553594     0.12600
C1354       C  0.65684558  0.71979374  0.79874974     0.62100
F1355       F  0.76218064  0.94705716  0.05936750    -0.23000
F1356       F  0.76359214  0.96482601  0.98700253    -0.20400
F1357       F  0.84048147  0.95137425  0.73815564    -0.20000
F1358       F  0.71102999  0.73504411  0.92376220    -0.20100
F1359       F  0.60944765  0.70789535  0.81676822    -0.20400
F1360       F  0.68031722  0.70509107  0.82920016    -0.23100
C1361       C  0.53693437  0.85296422  0.71665615    -0.05900
C1362       C  0.52106578  0.80905062  0.74396928     0.00000
C1363       C  0.50525861  0.81035750  0.78819505    -0.08600
C1364       C  0.50484734  0.85369851  0.80273480    -0.06000
C1365       C  0.51865481  0.89757560  0.77518428     0.00000
C1366       C  0.53768474  0.89724067  0.73152322    -0.08500
C1367       C  0.56375821  0.94450150  0.70156047     0.61900
H1368       H  0.55282919  0.85388487  0.68402757     0.12600
H1369       H  0.49512639  0.85409109  0.83733690     0.12600
C1370       C  0.49085659  0.76632404  0.82088643     0.62100
F1371       F  0.52597384  0.94986050  0.68268500    -0.23000
F1372       F  0.59287108  0.94116824  0.66772692    -0.20400
F1373       F  0.59749109  0.98729301  0.72544746    -0.20000
F1374       F  0.53395668  0.76348528  0.82873109    -0.20100
F1375       F  0.45185828  0.72071468  0.80322367    -0.20400
F1376       F  0.47278987  0.77209562  0.86136157    -0.23100
C1377       C  0.48510951  0.56211009  0.89132836    -0.05900
C1378       C  0.52432806  0.55145065  0.88046073     0.00000
C1379       C  0.57646877  0.59242472  0.88620621    -0.08600
C1380       C  0.58671227  0.64035154  0.90113627    -0.06000
C1381       C  0.54823134  0.65263756  0.90848199     0.00000
C1382       C  0.49604075  0.61244354  0.90012073    -0.08500
C1383       C  0.45460786  0.59886347  0.73044977     0.61900
H1384       H  0.44478490  0.53115185  0.88868892     0.12600
H1385       H  0.62679872  0.66983138  0.90511089     0.12600
C1386       C  0.62190589  0.58669508  0.87592256     0.62100
F1387       F  0.47811206  0.62441916  0.76884996    -0.23000
F1388       F  0.40590157  0.57894236  0.88404735    -0.20400
F1389       F  0.42522939  0.61701245  0.71352467    -0.20000
F1390       F  0.61980548  0.57237061  0.83279441    -0.20100
F1391       F  0.61988059  0.55006440  0.90430538    -0.20400
F1392       F  0.66978774  0.63193012  0.88042844    -0.23100
C1393       C  0.92478314  0.71438376  0.06390155    -0.05900
C1394       C  0.90469503  0.73500589  0.84394613     0.00000
C1395       C  0.85983260  0.68954626  0.86116172    -0.08600
C1396       C  0.84120784  0.64341210  0.83852187    -0.06000
C1397       C  0.86590437  0.64138368  0.79924782     0.00000
C1398       C  0.90933142  0.66848502  0.04201573    -0.08500
C1399       C  0.94659803  0.66834327  0.00841379     0.61900
H1400       H  0.96253932  0.74874981  0.05583958     0.12600
H1401       H  0.80563760  0.60880841  0.85063177     0.12600
C1402       C  0.83070829  0.68960134  0.90234667     0.62100
F1403       F  0.99412760  0.71497859  0.00602690    -0.23000
F1404       F  0.92578440  0.65931185  0.96642946    -0.20400
F1405       F  0.95549529  0.63045959  0.02097374    -0.20000
F1406       F  0.79757041  0.70546336  0.89078140    -0.20100
F1407       F  0.86527598  0.72229038  0.93352264    -0.20400
F1408       F  0.80144371  0.64095313  0.92207451    -0.23100
C1409       C  0.61259168  0.44796646  0.79049332    -0.05900
C1410       C  0.59763972  0.48275483  0.77905060     0.00000
C1411       C  0.63335888  0.52695767  0.75228838    -0.08600
C1412       C  0.68211613  0.53496122  0.73928284    -0.06000
C1413       C  0.69782325  0.50132594  0.75182747     0.00000
C1414       C  0.66183154  0.45638954  0.77731493    -0.08500
C1415       C  0.67581548  0.41789637  0.79088744     0.61900
H1416       H  0.58545513  0.41413210  0.81049964     0.12600
H1417       H  0.71948235  0.56892341  0.96027355     0.12600
C1418       C  0.62401574  0.56816510  0.73656014     0.62100
F1419       F  0.63631621  0.37720369  0.81623189    -0.23000
F1420       F  0.72068310  0.44157089  0.81555349    -0.20400
F1421       F  0.68423723  0.39830221  0.75313934    -0.20000
F1422       F  0.66447325  0.61548372  0.75025867    -0.20100
F1423       F  0.57768387  0.56118321  0.75196409    -0.20400
F1424       F  0.69249643  0.62518636  0.95930826    -0.23100
C1425       C  0.89255949  0.54825827  0.89731266    -0.05900
C1426       C  0.86303673  0.51451075  0.93329786     0.00000
C1427       C  0.87324594  0.47613503  0.94449296    -0.08600
C1428       C  0.91335345  0.47410901  0.92139617    -0.06000
C1429       C  0.94121929  0.50552932  0.88345815     0.00000
C1430       C  0.93038485  0.54410288  0.87200951    -0.08500
C1431       C  0.96047148  0.58323705  0.83495830     0.61900
H1432       H  0.88605948  0.57867345  0.88930867     0.12600
H1433       H  0.92348969  0.44764553  0.93375692     0.12600
C1434       C  0.82597363  0.43387664  0.72467743     0.62100
F1435       F  0.95580066  0.62525351  0.83776888    -0.23000
F1436       F  0.94100759  0.56064029  0.79472126    -0.20400
F1437       F  0.01297750  0.60123460  0.83723024    -0.20000
F1438       F  0.77602680  0.41757846  0.71178017    -0.20100
F1439       F  0.83315333  0.45169561  0.76752931    -0.20400
F1440       F  0.83048156  0.39181240  0.72481737    -0.23100
C1441       C  0.16261624  0.85055226  0.84562266    -0.05900
C1442       C  0.15424157  0.87821967  0.07298275     0.00000
C1443       C  0.19053507  0.90273223  0.03723900    -0.08600
C1444       C  0.21438589  0.87821111  0.02031197    -0.06000
C1445       C  0.20348316  0.83111187  0.03887533     0.00000
C1446       C  0.18408955  0.82450655  0.82722577    -0.08500
C1447       C  0.17425031  0.77662442  0.85185837     0.61900
H1448       H  0.13794432  0.83477267  0.87539518     0.12600
H1449       H  0.23888581  0.89398453  0.99054339     0.12600
C1450       C  0.20149785  0.95262642  0.01559547     0.62100
F1451       F  0.17811679  0.78472045  0.89704379    -0.23000
F1452       F  0.21024534  0.76436150  0.84013105    -0.20400
F1453       F  0.12447244  0.73561692  0.84331644    -0.20000
F1454       F  0.22326013  0.99125573  0.04621900    -0.20100
F1455       F  0.15556660  0.94629164  0.00069451    -0.20400
F1456       F  0.23601868  0.96823147  0.97961068    -0.23100
C1457       C  0.16655749  0.63951580  0.72997008    -0.05900
C1458       C  0.15138686  0.67449216  0.72602489     0.00000
C1459       C  0.09699048  0.65471115  0.73183359    -0.08600
C1460       C  0.06230215  0.60393548  0.74963839    -0.06000
C1461       C  0.07921771  0.57094029  0.76056307     0.00000
C1462       C  0.13170170  0.58805873  0.74509623    -0.08500
C1463       C  0.15551908  0.55576298  0.74379874     0.61900
H1464       H  0.20724591  0.65322713  0.72331306     0.12600
H1465       H  0.02207969  0.59086762  0.75621042     0.12600
C1466       C  0.07371009  0.68584754  0.71995886     0.62100
F1467       F  0.17443125  0.55829693  0.70119016    -0.23000
F1468       F  0.12082389  0.50487085  0.75500004    -0.20400
F1469       F  0.19695138  0.57554213  0.77240075    -0.20000
F1470       F  0.10144448  0.71573561  0.95139650    -0.20100
F1471       F  0.06091565  0.70063468  0.75851000    -0.20400
F1472       F  0.02922524  0.65607491  0.69569188    -0.23100
C1473       C  0.41331851  0.88587737  0.91812569    -0.05900
C1474       C  0.41299064  0.91930122  0.88537190     0.00000
C1475       C  0.36294245  0.90798649  0.87233202    -0.08600
C1476       C  0.31677437  0.86594955  0.89294373    -0.06000
C1477       C  0.31753384  0.83264627  0.92518329     0.00000
C1478       C  0.36692060  0.84304157  0.93776724    -0.08500
C1479       C  0.36998640  0.80773695  0.97142715     0.61900
H1480       H  0.45049771  0.89158865  0.92638819     0.12600
H1481       H  0.27932294  0.85953895  0.88415091     0.12600
C1482       C  0.35583918  0.93756576  0.83538031     0.62100
F1483       F  0.42062521  0.82034549  0.97628322    -0.23000
F1484       F  0.34039087  0.75756505  0.95749274    -0.20400
F1485       F  0.35482850  0.80099210  0.75723928    -0.20000
F1486       F  0.33895702  0.90811321  0.79794904    -0.20100
F1487       F  0.40126470  0.98393798  0.82461942    -0.20400
F1488       F  0.31869259  0.94784551  0.84834285    -0.23100
C1489       C  0.30637307  0.11029942  0.86829619    -0.05900
C1490       C  0.28612700  0.14047393  0.87835053     0.00000
C1491       C  0.27669647  0.15646736  0.06494050    -0.08600
C1492       C  0.31881999  0.16997401  0.03533301    -0.06000
C1493       C  0.36642098  0.17312260  0.81214920     0.00000
C1494       C  0.34224108  0.12316433  0.83313866    -0.08500
C1495       C  0.34884312  0.08051992  0.81648151     0.61900
H1496       H  0.28912856  0.07298130  0.88481156     0.12600
H1497       H  0.32731980  0.19660602  0.00775762     0.12600
C1498       C  0.24316064  0.17816120  0.05578300     0.62100
F1499       F  0.31343692  0.03318379  0.83657328    -0.23000
F1500       F  0.39799409  0.09104221  0.82542452    -0.20400
F1501       F  0.34058123  0.07549561  0.77125109    -0.20000
F1502       F  0.24129699  0.20309073  0.09270716    -0.20100
F1503       F  0.19345112  0.13871133  0.04537175    -0.20400
F1504       F  0.26254767  0.21339063  0.02033941    -0.23100
C1505       C  0.52935439  0.15749579  0.77604095    -0.05900
C1506       C  0.49326386  0.14697658  0.74270754     0.00000
C1507       C  0.46514613  0.09567630  0.72712024    -0.08600
C1508       C  0.47372097  0.05787128  0.74512624    -0.06000
C1509       C  0.50770474  0.06736424  0.78046216     0.00000
C1510       C  0.53721739  0.11960851  0.79521807    -0.08300
C1511       C  0.57789447  0.13752873  0.83063591     0.61900
H1512       H  0.54872916  0.19549726  0.78981064     0.12600
H1513       H  0.45117521  0.01924202  0.73257958     0.12600
C1514       C  0.42631757  0.05956668  0.92560183     0.62100
F1515       F  0.60993462  0.19068636  0.83115815    -0.23000
F1516       F  0.60952060  0.11951892  0.82234334    -0.20400
F1517       F  0.55401195  0.12064591  0.87201249    -0.20000
F1518       F  0.45349399  0.09517995  0.89144051    -0.20100
F1519       F  0.38223084  0.05974977  0.93683259    -0.20400
F1520       F  0.41034037  0.01139907  0.91082205    -0.23100
C1521       C  0.47363410  0.31741475  0.94898951    -0.05900
C1522       C  0.47507315  0.27817305  0.92706386     0.00000
C1523       C  0.48856462  0.28698373  0.88086335    -0.08600
C1524       C  0.49044682  0.32897903  0.85746487    -0.06000
C1525       C  0.48683472  0.36710480  0.87959095     0.00000
C1526       C  0.48282616  0.36274075  0.92659077    -0.08500
C1527       C  0.49084095  0.40710207  0.95316341     0.61900
H1528       H  0.55501209  0.33286522  0.69158612     0.12600
H1529       H  0.49617487  0.33303818  0.82168597     0.12600
C1530       C  0.50337906  0.25382508  0.85707741     0.62100
F1531       F  0.62681042  0.41034393  0.66696478    -0.23000
F1532       F  0.45742956  0.42171915  0.93942546    -0.20400
F1533       F  0.54180986  0.44796785  0.94673162    -0.20000
F1534       F  0.46294827  0.20278850  0.86028498    -0.20100
F1535       F  0.54692891  0.25907531  0.87652870    -0.20400
F1536       F  0.51561375  0.26836024  0.81263962    -0.23100
C1537       C  0.12354868  0.29878863  0.77051864    -0.05900
C1538       C  0.15488286  0.31281663  0.01890526     0.00000
C1539       C  0.15299490  0.26921823  0.00315070    -0.08600
C1540       C  0.13544910  0.22747464  0.03212890    -0.06000
C1541       C  0.11421476  0.22589323  0.07384228     0.00000
C1542       C  0.10621667  0.26506131  0.08613141    -0.08500
C1543       C  0.07215345  0.26607127  0.84297397     0.61900
H1544       H  0.11101624  0.32552589  0.76766822     0.12600
H1545       H  0.13658170  0.19471082  0.02135322     0.12600
C1546       C  0.16480120  0.26258828  0.95574448     0.62100
F1547       F  0.06046335  0.30270968  0.83312392    -0.23000
F1548       F  0.09483238  0.27671559  0.88404192    -0.20400
F1549       F  0.02011798  0.22274533  0.11560542    -0.20000
F1550       F  0.25917857  0.28556674  0.71900475    -0.20100
F1551       F  0.17962545  0.30487684  0.92829796    -0.20400
F1552       F  0.11989392  0.22095306  0.93927340    -0.23100
C1553       C  0.32869379  0.44557533  0.77072831    -0.05900
C1554       C  0.32640126  0.44436573  0.72448943     0.00000
C1555       C  0.36134620  0.43566879  0.70122883    -0.08600
C1556       C  0.40070302  0.43332198  0.72446465    -0.06000
C1557       C  0.40288437  0.43398384  0.77141994     0.00000
C1558       C  0.36206545  0.43570949  0.79463217    -0.08500
C1559       C  0.34911946  0.42680887  0.84434613     0.61900
H1560       H  0.29873627  0.44744785  0.78886914     0.12600
H1561       H  0.42897775  0.42973728  0.70576222     0.12600
C1562       C  0.31582334  0.35960744  0.96444378     0.62100
F1563       F  0.29773621  0.38627779  0.85009069    -0.23000
F1564       F  0.35386870  0.47020053  0.86177543    -0.20400
F1565       F  0.37927506  0.41485222  0.86870599    -0.20000
F1566       F  0.28052623  0.35477097  0.93351779    -0.20100
F1567       F  0.28985388  0.32412473  0.99904413    -0.20400
F1568       F  0.34925539  0.34860592  0.94349552    -0.23100
C1569       C  0.11295510  0.42504174  0.94054225    -0.05900
C1570       C  0.16467831  0.44592337  0.92429935     0.00000
C1571       C  0.17774444  0.47397658  0.88335878    -0.08600
C1572       C  0.13993526  0.48143628  0.86240177    -0.06000
C1573       C  0.08818373  0.46203001  0.88021896     0.00000
C1574       C  0.07472288  0.43004260  0.91880456    -0.08500
C1575       C  0.03352615  0.41429857  0.70654050     0.61900
H1576       H  0.11726636  0.41310506  0.72852245     0.12600
H1577       H  0.15098509  0.50088500  0.83049684     0.12600
C1578       C  0.23056584  0.49435841  0.86111463     0.62100
F1579       F  0.02991131  0.37991025  0.73891554    -0.23000
F1580       F  0.98193472  0.39539553  0.91469143    -0.20400
F1581       F  0.02782692  0.44998916  0.72734204    -0.20000
F1582       F  0.23745989  0.45420828  0.85433116    -0.20100
F1583       F  0.26951867  0.52992584  0.88796655    -0.20400
F1584       F  0.23545455  0.51819035  0.82029447    -0.23100
C1585       C  0.90188963  0.10467720  0.05708333    -0.05900
C1586       C  0.88443836  0.09610012  0.83442882     0.00000
C1587       C  0.82962131  0.07253163  0.83353394    -0.08600
C1588       C  0.80861113  0.08755644  0.79932926    -0.06000
C1589       C  0.84023018  0.12685401  0.76779013     0.00000
C1590       C  0.88119076  0.11858738  0.02194474    -0.08500
C1591       C  0.91678881  0.14676434  0.98202602     0.61900
H1592       H  0.94240528  0.11611538  0.05493636     0.12600
H1593       H  0.76742647  0.07046043  0.79838530     0.12600
C1594       C  0.79395319  0.03454286  0.87015136     0.62100
F1595       F  0.93706582  0.11881399  0.96715208    -0.23000
F1596       F  0.95755929  0.19455925  0.99429331    -0.20400
F1597       F  0.89117157  0.15302560  0.94723244    -0.20000
F1598       F  0.74287164  0.02088421  0.86601990    -0.20100
F1599       F  0.81086434  0.05640622  0.91115145    -0.20400
F1600       F  0.79405694  0.98995004  0.86895048    -0.23100
C1601       C  0.84914653  0.29257686  0.79445560    -0.05900
C1602       C  0.84539896  0.28530077  0.74848837     0.00000
C1603       C  0.87769755  0.32933644  0.72062409    -0.08600
C1604       C  0.91447145  0.37796064  0.74006121    -0.06000
C1605       C  0.92165286  0.38430259  0.78666647     0.00000
C1606       C  0.88458607  0.34036628  0.81373233    -0.08500
C1607       C  0.87925894  0.34084739  0.86350668     0.61900
H1608       H  0.82457347  0.25930751  0.81623953     0.12600
H1609       H  0.93878633  0.41094468  0.71861478     0.12600
C1610       C  0.87342897  0.32357471  0.67060954     0.62100
F1611       F  0.82725986  0.31853061  0.87592867    -0.23000
F1612       F  0.90569243  0.38989725  0.87837318    -0.20400
F1613       F  0.89766643  0.31315278  0.88352289    -0.20000
F1614       F  0.82326477  0.30769737  0.65850975    -0.20100
F1615       F  0.76420765  0.24837334  0.05317061    -0.20400
F1616       F  0.90772625  0.36890959  0.64750459    -0.23100
C1617       C  0.70598600  0.09642113  0.89012855    -0.05900
C1618       C  0.70465739  0.12121142  0.92832565     0.00000
C1619       C  0.65600342  0.11588193  0.93841059    -0.08600
C1620       C  0.60911743  0.07700145  0.91719753    -0.06000
C1621       C  0.61048398  0.05056252  0.87963407     0.00000
C1622       C  0.66169598  0.06732170  0.86308309    -0.08500
C1623       C  0.67266026  0.06368804  0.81444797     0.61900
H1624       H  0.74350380  0.10388900  0.87896379     0.12600
H1625       H  0.57156509  0.06904946  0.92860299     0.12600
C1626       C  0.65489289  0.15509986  0.96692178     0.62100
F1627       F  0.71791302  0.10882737  0.80040884    -0.23000
F1628       F  0.63382729  0.05825802  0.78737239    -0.20400
F1629       F  0.67801118  0.02255834  0.80860975    -0.20000
F1630       F  0.68628051  0.20330531  0.94685928    -0.20100
F1631       F  0.66888902  0.14789920  0.74967061    -0.20400
F1632       F  0.59634478  0.12775655  0.71329390    -0.23100
loop_ 
_geom_bond_atom_site_label_1 
_geom_bond_atom_site_label_2 
_geom_bond_distance 
_geom_bond_site_symmetry_2 
_ccdc_geom_bond_type 
C1            N2   1.378       .  A
C1            N6   1.387       .  A
C1          C394   1.544       .  S
N2          C411   1.372       .  A
C3            N4   1.344       .  A
C3         N1226   1.367   1_554  A
C3          C365   1.497       .  S
N4            C5   1.354   1_554  A
C5         N1230   1.389       .  A
C5          C378   1.534   1_556  S
N6          C413   1.384       .  A
C7           N12   1.356       .  A
C7          N416   1.386       .  A
C7          C346   1.512       .  S
N8            C9   1.400       .  A
N8         C1231   1.400       .  A
C9           N10   1.349       .  A
C9          C330   1.528       .  S
N10          C11   1.340       .  A
C11        N1236   1.338       .  A
C11        C1538   1.444   1_556  S
N12         C419   1.347       .  A
C13          N14   1.346   1_556  A
C13        N1242   1.386       .  A
C13         C282   1.516       .  S
N14          C15   1.344       .  A
C15        N1240   1.363   1_554  A
C15         C269   1.504       .  S
N16          C17   1.363       .  A
N16         C423   1.357       .  A
C17          N18   1.392       .  A
C17         C298   1.531       .  S
N18         C421   1.391       .  A
C19          N20   1.353       .  A
C19          N24   1.385       .  A
C19         C253   1.502       .  S
N20         C429   1.349       .  A
C21          N22   1.353       .  A
C21        N1244   1.348   1_554  A
C21        C1445   1.470       .  S
N22          C23   1.356   1_554  A
C23        N1248   1.389       .  A
C23         C234   1.525       .  S
N24         C431   1.385       .  A
C25          N30   1.375       .  A
C25         N434   1.396       .  A
C25         C202   1.565       .  S
N26          C27   1.386       .  A
N26        C1249   1.391       .  A
C27          N28   1.346   1_556  A
C27         C189   1.513       .  S
N28          C29   1.346       .  A
C29        N1254   1.363   1_554  A
C29         C173   1.504       .  S
N30         C437   1.365       .  A
C31          N36   1.345       .  A
C31        N1256   1.397       .  A
C31         C138   1.528       .  S
N32          C33   1.400       .  A
N32         C439   1.398       .  A
C33          N34   1.350       .  A
C33         C157   1.527       .  S
N34          C35   1.341       .  A
C35         N444   1.342       .  A
C35         C122   1.455       .  S
N36        C1259   1.345       .  A
O37         Mg39   2.088   1_455  S
O37        Mg453   2.109       .  S
O37          C72   1.231       .  S
C38          O51   1.230       .  S
C38          O75   1.269       .  A
C38          H77   1.067       .  S
Mg39        O476   2.157   1_545  S
Mg39         O79   2.153   1_545  S
Mg39         O50   2.281   1_545  S
Mg39        O491   2.250       .  S
O40         Mg65   2.134       .  S
O40        Mg490   2.153   1_545  S
O40          C61   1.235       .  S
O41          C72   1.269       .  A
O41         Mg65   2.296       .  S
C42         C170   1.487       .  S
C42          O44   1.270       .  A
C42          O56   1.269       .  A
O43          C71   1.278   1_545  A
O43         Mg45   2.331   1_655  S
O44         Mg76   2.283       .  S
Mg45         O51   2.158       .  S
Mg45       O1261   2.133   1_455  S
Mg45         O59   2.287   1_455  S
Mg45       O1271   2.237       .  S
C46         C218   1.458       .  S
C46          O84   1.268       .  A
C46          O52   1.269       .  A
O47          C54   1.261       .  A
O47        Mg453   2.214       .  S
H48          C61   1.081       .  S
C49          O63   1.237       .  S
C49          O64   1.277   1_455  A
C49          H74   1.081       .  S
O50          C73   1.264       .  A
O51       Mg1289   2.146       .  S
O52        Mg490   2.275       .  S
C53         C266   1.496       .  S
C53          O66   1.270       .  A
C53          O58   1.270       .  A
C54         C317   1.456       .  S
C54          O81   1.267       .  A
Mg55         O62   2.116   1_455  S
Mg55        O471   2.159       .  S
Mg55         O57   2.281       .  S
Mg55         O84   2.228       .  S
Mg55        O464   2.283   1_455  S
O56       Mg1279   2.283   1_655  S
O57          C61   1.266   1_565  A
O58       Mg1289   2.277       .  S
O59          C78   1.264       .  A
O60          C80   1.273       .  A
O60        Mg484   2.288       .  S
O62        Mg484   2.114       .  S
O62          C73   1.230       .  S
O63         Mg82   2.159       .  S
O63       Mg1279   2.164       .  S
O64         Mg76   2.330       .  S
Mg65        O459   2.164       .  S
Mg65         O81   2.240       .  S
Mg65        O466   2.237       .  S
O66         Mg82   2.241   1_545  S
H67          C72   1.081       .  S
O68         Mg76   2.146       .  S
O68       Mg1263   2.132       .  S
O68          C71   1.238       .  S
H69          C71   1.081       .  S
H70          C73   1.075       .  S
O75         Mg82   2.298   1_545  S
Mg76       O1286   2.112       .  S
Mg76       O1284   2.298       .  S
C78         C362   1.482       .  S
C78          O83   1.261       .  A
O79          C80   1.255       .  A
C80         C125   1.467       .  S
Mg82       O1264   2.137   1_565  S
Mg82       O1276   2.264       .  S
O83       Mg1263   2.224   1_545  S
C85          C86   1.530       .  S
C85          C91   1.524       .  S
C85          C89   1.558       .  S
C85         C349   1.599       .  S
C86          H93   1.079       .  S
C86          C87   1.355       .  D
C87          C88   1.592   1_455  S
C87         C237   1.547       .  S
C88          C92   1.589       .  S
C88          C90   1.591       .  S
C88          H94   1.110       .  S
C89          H95   1.084       .  S
C89          C90   1.393   1_455  D
C90         C205   1.551       .  S
C91          H96   1.067       .  S
C91          C92   1.360   1_455  D
C92         C381   1.558       .  S
C97          C98   1.524       .  S
C97         C103   1.552       .  S
C97         C101   1.587       .  S
C97         C141   1.622       .  S
C98         H105   1.086       .  S
C98          C99   1.354       .  D
C99         C100   1.575       .  S
C99         C250   1.512       .  S
C100        C104   1.564       .  S
C100        C102   1.561   1_565  S
C100        H106   1.098   1_565  S
C101        H107   1.072   1_554  S
C101        C102   1.398   1_565  D
C102        C285   1.565       .  S
C103        H108   1.081       .  S
C103        C104   1.387       .  D
C104        C397   1.558   1_565  S
C109        C110   1.511       .  S
C109        C115   1.560       .  S
C109        C113   1.547       .  S
C109        C333   1.592       .  S
C110        H117   1.076       .  S
C110        C111   1.344       .  D
C111        C112   1.603       .  S
C111        C154   1.546       .  S
C112        C116   1.589       .  S
C112        C114   1.571       .  S
C112        H118   1.091       .  S
C113        H119   1.083   1_554  S
C113        C114   1.378       .  D
C114        C186   1.546       .  S
C115        H120   1.072       .  S
C115        C116   1.402       .  D
C116        C301   1.594       .  S
C121        H128   1.083       .  S
C121        C122   1.397       .  A
C121        C126   1.391       .  A
C122        C123   1.410       .  A
C123        C538   1.516       .  S
C123        C124   1.396       .  A
C124        H129   1.082       .  S
C124        C125   1.405       .  A
C125        C126   1.426       .  A
C126        C127   1.526       .  S
C127        F131   1.380       .  S
C127        F132   1.384       .  S
C127        F541   1.382       .  S
C130       C1347   1.506       .  S
C130        F135   1.380       .  S
C130        F136   1.385       .  S
C130       F1358   1.382       .  S
F133       C1351   1.383       .  S
F134        C538   1.380       .  S
C137        H144   1.084       .  S
C137        C138   1.408       .  A
C137        C142   1.431       .  A
C138        C139   1.418   1_556  A
C139        C146   1.516       .  S
C139        C140   1.437       .  A
C140        H145   1.079       .  S
C140        C141   1.434       .  A
C141        C142   1.435   1_554  A
C142        C143   1.497       .  S
C143        F147   1.364       .  S
C143        F148   1.385       .  S
C143        F149   1.376       .  S
C146        F150   1.384       .  S
C146        F151   1.383       .  S
C146        F152   1.384       .  S
C153        H160   1.081       .  S
C153        C154   1.424       .  A
C153        C158   1.437       .  A
C154        C155   1.422       .  A
C155        C162   1.502       .  S
C155        C156   1.421       .  A
C156        H161   1.083       .  S
C156        C157   1.411       .  A
C157        C158   1.421       .  A
C158        C567   1.512       .  S
C159       C1382   1.524       .  S
C159        F163   1.377       .  S
C159        F165   1.379       .  S
C159       F1388   1.385       .  S
C162        F166   1.377       .  S
C162        F167   1.381       .  S
C162        F168   1.385       .  S
F164        C567   1.382       .  S
C169        H176   1.084       .  S
C169        C174   1.410       .  A
C169        C578   1.406       .  A
C170        C171   1.413       .  A
C170       C1393   1.407       .  A
C171        C178   1.520       .  S
C171        C172   1.408       .  A
C172        H177   1.082       .  S
C172        C173   1.416       .  A
C173       C1398   1.420       .  A
C174        C175   1.520       .  S
C174        C581   1.419       .  A
C175        F179   1.385       .  S
C175        F180   1.379       .  S
C175        F181   1.373       .  S
C178        F182   1.382       .  S
C178        F183   1.383       .  S
C178        F184   1.383       .  S
C185        H192   1.080       .  S
C185        C186   1.417       .  A
C185        C190   1.432       .  A
C186        C187   1.426   1_554  A
C187        C194   1.505       .  S
C187        C188   1.420       .  A
C188       H1417   1.081       .  S
C188        C189   1.402       .  A
C189        C190   1.421   1_556  A
C190        C191   1.513       .  S
C191        F195   1.385       .  S
C191        F196   1.383       .  S
C191        F197   1.383       .  S
H193        C596   1.082       .  S
C194        F198   1.375   1_556  S
C194        F199   1.379       .  S
C194       F1424   1.380       .  S
F200        C602   1.379       .  S
C201        H208   1.078       .  S
C201        C202   1.421       .  A
C201        C206   1.429       .  A
C202        C203   1.434       .  A
C203        C618   1.514       .  S
C203        C204   1.442       .  A
C204        H209   1.079       .  S
C204        C205   1.416       .  A
C205        C206   1.423       .  A
C206        C207   1.519   1_655  S
C207        F211   1.382       .  S
C207        F212   1.378       .  S
C207        F213   1.379       .  S
C210       C1427   1.509       .  S
C210        F214   1.383       .  S
C210        F215   1.383   1_556  S
C210        F216   1.376       .  S
C217        H224   1.085       .  S
C217        C222   1.396       .  A
C217       C1442   1.397       .  A
C218        C219   1.413       .  A
C218        C625   1.397       .  A
C219        C226   1.515       .  S
C219        C220   1.402       .  A
C220        H225   1.083       .  S
C220        C221   1.403       .  A
C221        C429   1.467       .  S
C221        C630   1.411       .  A
C222        C223   1.515       .  S
C222       C1445   1.416       .  A
C223        F227   1.383       .  S
C223        F228   1.382       .  S
C223        F229   1.382       .  S
C226        F230   1.382   1_565  S
C226        F231   1.382       .  S
C226        F232   1.383       .  S
C233        H240   1.084       .  S
C233        C234   1.396       .  A
C233        C238   1.421       .  A
C234        C235   1.432       .  A
C235        C242   1.509       .  S
C235        C236   1.428   1_556  A
C236        H241   1.083       .  S
C236        C237   1.403       .  A
C237        C238   1.444   1_554  A
C238        C239   1.513       .  S
C239        F243   1.382       .  S
C239        F244   1.377   1_556  S
C239        F245   1.382   1_556  S
C242        F247   1.381   1_556  S
C242        F248   1.383       .  S
C242       F1470   1.380       .  S
F246        C650   1.383       .  S
C249        H256   1.083       .  S
C249        C250   1.413       .  A
C249        C254   1.417       .  A
C250        C251   1.419       .  A
C251        C258   1.517       .  S
C251        C252   1.421       .  A
C252        H257   1.083       .  S
C252        C253   1.412       .  A
C253        C254   1.416       .  A
C254        C255   1.516       .  S
C255        F259   1.384       .  S
C255        F260   1.383       .  S
C255        F669   1.383       .  S
C258        F262   1.383       .  S
C258        F263   1.381       .  S
C258        F264   1.384       .  S
F261       C1479   1.383   1_554  S
C265        H272   1.082       .  S
C265        C266   1.400       .  A
C265        C270   1.405       .  A
C266       C1491   1.425       .  A
C267        C274   1.513       .  S
C267        C268   1.413       .  A
C267        C674   1.411       .  A
C268        H273   1.080       .  S
C268        C677   1.406       .  A
C269        C270   1.432       .  A
C269       C1492   1.407       .  A
C270        C271   1.526       .  S
C271        F275   1.384       .  S
C271        F276   1.383       .  S
C271        F277   1.384       .  S
C274        F278   1.383       .  S
C274        F279   1.383       .  S
C274        F280   1.381       .  S
C281        H288   1.083       .  S
C281        C282   1.398   1_554  A
C281        C286   1.426       .  A
C282        C283   1.418       .  A
C283       C1514   1.510       .  S
C283        C284   1.432       .  A
C284        H289   1.082   1_545  S
C284        C285   1.419   1_556  A
C285        C286   1.447       .  A
C286        C287   1.514       .  S
C287        F291   1.386       .  S
C287        F292   1.367       .  S
C287        F293   1.376       .  S
C290        C691   1.512       .  S
C290        F294   1.380       .  S
C290        F295   1.382       .  S
C290        F296   1.381       .  S
C297        H712   1.082       .  S
C297        C298   1.404       .  A
C297        C302   1.443       .  A
C298        C299   1.417       .  A
C299        C306   1.513       .  S
C299        C300   1.422       .  A
C300        H305   1.073       .  S
C300        C301   1.424       .  A
C301        C302   1.450       .  A
C302        C303   1.506       .  S
C303        F308   1.369       .  S
C303        F309   1.376       .  S
C303        F715   1.380       .  S
H304       C1521   1.083       .  S
C306        F310   1.383       .  S
C306        F311   1.381       .  S
C306        F312   1.380       .  S
F307       C1527   1.381       .  S
C313        H320   1.084       .  S
C313       C1538   1.403       .  A
C313       C1542   1.404       .  A
C314        C419   1.457       .  S
C314        C315   1.408       .  A
C314        C721   1.399       .  A
C315        C322   1.513       .  S
C315        C316   1.394       .  A
C316        H321   1.085       .  S
C316        C317   1.406       .  A
C317        C318   1.420       .  A
C318        C727   1.517       .  S
C318        C721   1.393       .  A
C319       C1542   1.514       .  S
C319        F323   1.384       .  S
C319        F324   1.378       .  S
C319       F1549   1.383       .  S
C322        F327   1.384       .  S
C322        F328   1.383       .  S
C322        F734   1.383       .  S
F325        C727   1.382       .  S
F326       C1546   1.382       .  S
C329        H336   1.084       .  S
C329        C330   1.403       .  A
C329        C334   1.434   1_556  A
C330        C331   1.434       .  A
C331       C1562   1.515       .  S
C331        C332   1.413   1_556  A
C332        H337   1.078       .  S
C332        C333   1.405       .  A
C333        C334   1.451       .  A
C334        C335   1.519       .  S
C335        F339   1.370   1_554  S
C335        F340   1.379       .  S
C335        F341   1.383       .  S
C338        C739   1.515       .  S
C338        F342   1.377       .  S
C338        F343   1.374       .  S
C338        F344   1.380       .  S
C345        H760   1.085       .  S
C345        C346   1.408       .  A
C345        C350   1.414       .  A
C346        C347   1.405       .  A
C347        C354   1.519       .  S
C347        C348   1.422       .  A
C348        H353   1.066       .  S
C348        C349   1.440       .  A
C349        C350   1.438       .  A
C350        C759   1.517       .  S
C351       C1574   1.505       .  S
C351        F355   1.379       .  S
C351        F357   1.374       .  S
C351       F1580   1.361   1_455  S
H352       C1569   1.079       .  S
C354        F358   1.383       .  S
C354        F359   1.383       .  S
C354        F360   1.384       .  S
F356        C759   1.383       .  S
C361        H368   1.083       .  S
C361        C366   1.417       .  A
C361        C770   1.410       .  A
C362        C363   1.408       .  A
C362       C1585   1.405       .  A
C363        C370   1.521       .  S
C363        C364   1.409       .  A
C364        H369   1.046       .  S
C364        C365   1.404       .  A
C365       C1590   1.417       .  A
C366        C367   1.518       .  S
C366        C773   1.419       .  A
C367        F371   1.384       .  S
C367        F372   1.382       .  S
C367        F373   1.383       .  S
C370        F374   1.383       .  S
C370        F375   1.383       .  S
C370        F376   1.380   1_545  S
C377        H384   1.082   1_554  S
C377        C378   1.405       .  A
C377        C382   1.414       .  A
C378        C379   1.422       .  A
C379        C386   1.513       .  S
C379        C380   1.442       .  A
C380        H385   1.082       .  S
C380        C381   1.421       .  A
C381        C382   1.448       .  A
C382        C383   1.540   1_655  S
C383        F387   1.384       .  S
C383        F388   1.383   1_455  S
C383        F389   1.379       .  S
C386        F390   1.385       .  S
C386        F392   1.382   1_554  S
C386       F1615   1.383       .  S
F391        C794   1.384       .  S
C393        H400   1.080       .  S
C393        C394   1.404       .  A
C393        C398   1.430       .  A
C394        C395   1.426       .  A
C395        C402   1.512       .  S
C395        C396   1.442       .  A
C396        H401   1.080       .  S
C396        C397   1.422       .  A
C397        C398   1.420       .  A
C398        C399   1.514       .  S
C399        F403   1.375       .  S
C399        F404   1.379       .  S
C399        F405   1.381       .  S
C402        F406   1.383       .  S
C402        F815   1.376       .  S
C402        F816   1.381       .  S
F407       C1626   1.378   1_554  S
F408       C1626   1.380       .  S
C409        N410   1.374       .  A
C409        N414   1.392       .  A
C409        C802   1.544       .  S
N410        C819   1.368       .  A
C411        N412   1.349       .  A
C411        C773   1.503       .  S
N412        C413   1.353       .  A
C413        C786   1.515       .  S
N414        C821   1.388       .  A
C415        N824   1.400       .  A
C415        N420   1.352       .  A
C415        C754   1.530       .  S
N416        C417   1.383       .  A
C417        N418   1.341       .  A
C417        C738   1.494       .  S
N418        C419   1.339       .  A
N420        C827   1.337       .  A
C421        N422   1.356       .  A
C421        C690   1.531       .  S
N422        C423   1.356       .  A
C423        C677   1.478       .  S
N424        C831   1.361       .  A
N424        C425   1.369       .  A
C425        N426   1.386       .  A
C425        C706   1.531       .  S
N426        C829   1.382       .  A
C427        N428   1.350       .  A
C427        N432   1.384       .  A
C427        C661   1.491       .  S
N428        C837   1.345       .  A
C429        N430   1.351       .  A
N430        C431   1.349       .  A
C431        C642   1.519       .  S
N432        C839   1.381       .  A
C433        N842   1.402       .  A
C433        N438   1.374       .  A
C433        C610   1.567       .  S
N434        C435   1.391       .  A
C435        N436   1.346       .  A
C435        C597   1.522       .  S
N436        C437   1.345       .  A
C437        C581   1.491       .  S
N438        C845   1.362       .  A
C439        N444   1.344       .  A
C439        C546   1.523       .  S
N440        C847   1.396       .  A
N440        C441   1.399       .  A
C441        N442   1.359       .  A
C441        C565   1.555       .  S
N442        C443   1.347       .  A
C443        N852   1.347       .  A
C443        C530   1.481       .  S
O445       Mg447   2.083   1_545  S
O445       Mg861   2.133   1_655  S
O445        C480   1.232   1_655  S
C446        O459   1.236       .  S
C446        O483   1.275       .  A
C446        H485   1.079       .  S
Mg447       O884   2.143       .  S
Mg447       O899   2.237   1_565  S
Mg447       O487   2.200       .  S
Mg447       O458   2.302       .  S
O448       Mg898   2.133   1_545  S
O448       Mg473   2.121       .  S
O448        C469   1.230       .  S
O449        C480   1.264       .  A
O449       Mg473   2.280       .  S
C450        C578   1.481       .  S
C450        O452   1.273       .  A
C450        O464   1.271       .  A
O451        C479   1.279   1_545  A
O451       Mg453   2.342   1_655  S
O452       Mg484   2.294       .  S
Mg453       O459   2.148       .  S
Mg453       O467   2.300   1_455  S
C454        C626   1.451       .  S
C454        O492   1.266       .  A
C454        O460   1.264       .  A
O455        C462   1.259       .  A
O455       Mg861   2.202       .  S
H456        C469   1.080       .  S
C457        O471   1.235       .  S
C457        O472   1.272   1_455  A
C457        H482   1.081       .  S
O458        C481   1.271       .  A
O460       Mg898   2.255       .  S
C461        C674   1.478       .  S
C461        O474   1.266       .  A
C461        O466   1.264       .  A
C462        C725   1.442       .  S
C462        O489   1.269       .  A
Mg463       O470   2.114   1_455  S
Mg463       O879   2.172       .  S
Mg463       O872   2.285   1_455  S
Mg463       O465   2.289       .  S
Mg463       O492   2.221       .  S
O465        C469   1.265   1_565  A
O467        C486   1.265       .  A
O468        C488   1.274       .  A
O468       Mg892   2.285       .  S
O470       Mg892   2.114       .  S
O470        C481   1.235       .  S
O471       Mg490   2.152       .  S
O472       Mg484   2.312       .  S
Mg473       O867   2.169       .  S
Mg473       O874   2.291       .  S
Mg473       O489   2.224       .  S
O474       Mg490   2.287   1_545  S
H475        C480   1.081   1_655  S
O476       Mg484   2.175       .  S
O476        C479   1.239       .  S
H477        C479   1.080       .  S
H478        C481   1.074       .  S
O483       Mg490   2.322   1_545  S
C486        C770   1.492       .  S
C486        O491   1.263       .  A
O487        C488   1.259       .  A
C488        C533   1.471       .  S
C493        C494   1.521       .  S
C493        C499   1.553   1_455  S
C493        C497   1.576       .  S
C493        C757   1.615       .  S
C494        H501   1.080       .  S
C494        C495   1.359       .  D
C495        C496   1.596   1_455  S
C495        C645   1.540       .  S
C496        C500   1.567       .  S
C496        C498   1.559       .  S
C496        H502   1.110       .  S
C497        H503   1.081       .  S
C497        C498   1.395   1_455  D
C498        C613   1.551       .  S
C499        H504   1.063       .  S
C499        C500   1.366       .  D
C500        C789   1.537       .  S
C505        C506   1.509       .  S
C505        C511   1.550       .  S
C505        C509   1.590       .  S
C505        C549   1.611       .  S
C506        H513   1.089       .  S
C506        C507   1.343       .  D
C507        C508   1.578   1_565  S
C507        C658   1.503       .  S
C508        C512   1.569       .  S
C508        C510   1.563       .  S
C508        H514   1.102       .  S
C509        H515   1.075       .  S
C509        C510   1.405   1_565  D
C510        C693   1.563       .  S
C511        H516   1.082       .  S
C511        C512   1.384   1_565  D
C512        C805   1.561       .  S
C517        C518   1.513       .  S
C517        C523   1.544       .  S
C517        C521   1.560       .  S
C517        C741   1.567       .  S
C518        H525   1.085       .  S
C518        C519   1.354       .  D
C519        C520   1.608       .  S
C519        C562   1.561       .  S
C520        C524   1.573       .  S
C520        C522   1.563       .  S
C520        H526   1.101       .  S
C521        H527   1.077       .  S
C521        C522   1.386       .  D
C522        C594   1.534       .  S
C523        H528   1.086       .  S
C523        C524   1.370       .  D
C524        C709   1.538       .  S
C529        H536   1.084       .  S
C529        C530   1.403       .  A
C529        C534   1.401       .  A
C530        C531   1.419       .  A
C531        C946   1.504       .  S
C531        C532   1.391       .  A
C532        H537   1.082       .  S
C532        C533   1.396       .  A
C533        C534   1.423       .  A
C534        C535   1.518       .  S
C535        F539   1.377       .  S
C535        F540   1.384       .  S
C535        F949   1.384       .  S
C538        F543   1.382       .  S
C538        F544   1.382       .  S
F542        C946   1.382       .  S
C545        H552   1.083       .  S
C545        C546   1.413       .  A
C545        C550   1.439       .  A
C546        C547   1.419       .  A
C547        C554   1.516       .  S
C547        C548   1.422       .  A
C548        H553   1.082       .  S
C548        C549   1.426       .  A
C549        C550   1.432       .  A
C550        C551   1.498       .  S
C551        F555   1.377       .  S
C551        F556   1.384       .  S
C551        F557   1.382       .  S
C554        F558   1.383       .  S
C554        F559   1.383       .  S
C554        F560   1.385       .  S
C561        H568   1.079       .  S
C561        C562   1.437       .  A
C561        C566   1.433       .  A
C562        C563   1.415       .  A
C563        C570   1.517       .  S
C563        C564   1.424       .  A
C564        H569   1.063       .  S
C564        C565   1.428       .  A
C565        C566   1.416       .  A
C566        C975   1.522       .  S
C567        F571   1.382       .  S
C567        F573   1.383       .  S
C570        F574   1.371       .  S
C570        F575   1.380       .  S
C570        F576   1.383       .  S
F572        C975   1.384       .  S
C577        H584   1.083       .  S
C577        C986   1.406       .  A
C577        C582   1.409       .  A
C578        C579   1.410       .  A
C579        C586   1.518       .  S
C579        C580   1.411       .  A
C580        H585   1.083       .  S
C580        C581   1.415       .  A
C582        C583   1.511       .  S
C582        C989   1.418       .  A
C583        F587   1.385       .  S
C583        F588   1.381       .  S
C583        F589   1.377       .  S
C586        F590   1.383       .  S
C586        F591   1.382       .  S
C586        F592   1.385       .  S
C593        H600   1.082       .  S
C593        C594   1.416       .  A
C593        C598   1.433       .  A
C594        C595   1.428       .  A
C595        C602   1.520       .  S
C595        C596   1.422       .  A
C596        C597   1.412       .  A
C597        C598   1.422       .  A
C598        C599   1.513       .  S
C599        F603   1.384       .  S
C599        F604   1.382       .  S
C599        F605   1.382       .  S
H601       C1004   1.085       .  S
C602        F606   1.382       .  S
C602        F607   1.380       .  S
F608       C1010   1.373       .  S
C609        H616   1.077       .  S
C609        C610   1.424       .  A
C609        C614   1.428       .  A
C610        C611   1.431       .  A
C611       C1026   1.515       .  S
C611        C612   1.444       .  A
C612        H617   1.078       .  S
C612        C613   1.421       .  A
C613        C614   1.417       .  A
C614        C615   1.515   1_655  S
C615        F619   1.384       .  S
C615        F620   1.377       .  S
C615        F621   1.373       .  S
C618        F622   1.383       .  S
C618        F623   1.383       .  S
C618        F624   1.385       .  S
C625        H632   1.085       .  S
C625        C630   1.396       .  A
C626       C1033   1.395       .  A
C626        C627   1.412       .  A
C627        C634   1.519       .  S
C627        C628   1.402       .  A
C628        H633   1.083       .  S
C628        C629   1.407       .  A
C629        C837   1.464       .  S
C629       C1038   1.411       .  A
C630        C631   1.513       .  S
C631        F635   1.378       .  S
C631        F636   1.384       .  S
C631        F637   1.380       .  S
C634        F638   1.383   1_565  S
C634        F639   1.383       .  S
C634        F640   1.385       .  S
C641        H648   1.085       .  S
C641        C642   1.392       .  A
C641        C646   1.414       .  A
C642        C643   1.437       .  A
C643        C650   1.517       .  S
C643        C644   1.428       .  A
C644        H649   1.082       .  S
C644        C645   1.401       .  A
C645        C646   1.439       .  A
C646        C647   1.504       .  S
C647        F651   1.381       .  S
C647        F652   1.376       .  S
C647        F653   1.383       .  S
C650        F655   1.376       .  S
C650        F656   1.379       .  S
F654       C1058   1.378       .  S
C657        H664   1.079       .  S
C657        C658   1.416       .  A
C657        C662   1.413       .  A
C658        C659   1.416       .  A
C659        C666   1.517       .  S
C659        C660   1.418       .  A
C660        H665   1.083       .  S
C660        C661   1.412       .  A
C661        C662   1.409       .  A
C662        C663   1.516       .  S
C663        F667   1.382       .  S
C663        F668   1.383       .  S
C663       F1077   1.383       .  S
C666        F670   1.383       .  S
C666        F671   1.380   1_565  S
C666        F672   1.383       .  S
C673        H680   1.079       .  S
C673        C674   1.402       .  A
C673        C678   1.403       .  A
C675        C682   1.520       .  S
C675       C1082   1.425       .  A
C675        C676   1.412       .  A
C676        H681   1.081       .  S
C676       C1085   1.408       .  A
C677        C678   1.411       .  A
C678        C679   1.517       .  S
C679        F683   1.384       .  S
C679        F684   1.380       .  S
C679        F685   1.382       .  S
C682        F686   1.381       .  S
C682        F687   1.382       .  S
C682        F688   1.385       .  S
C689        H696   1.083       .  S
C689        C690   1.403       .  A
C689        C694   1.430       .  A
C690        C691   1.429       .  A
C691        C692   1.431       .  A
C692        H697   1.084       .  S
C692        C693   1.416       .  A
C693        C694   1.444       .  A
C694        C695   1.513       .  S
C695        F699   1.385       .  S
C695        F700   1.372       .  S
C695        F701   1.380       .  S
C698       C1099   1.515       .  S
C698        F702   1.382       .  S
C698        F703   1.381       .  S
C698        F704   1.380       .  S
C705       H1120   1.083       .  S
C705        C706   1.409       .  A
C705        C710   1.420       .  A
C706        C707   1.424       .  A
C707        C714   1.514       .  S
C707        C708   1.437       .  A
C708        H713   1.083       .  S
C708        C709   1.417       .  A
C709        C710   1.410       .  A
C710        C711   1.496       .  S
C711       F1123   1.378       .  S
C711        F716   1.382       .  S
C711        F717   1.379       .  S
C714        F718   1.383       .  S
C714        F719   1.382       .  S
C714        F720   1.382       .  S
C721        H728   1.084       .  S
C722        C827   1.442       .  S
C722       C1129   1.401       .  A
C722        C723   1.412       .  A
C723        C730   1.515       .  S
C723        C724   1.381       .  A
C724        H729   1.087       .  S
C724        C725   1.392       .  A
C725        C726   1.412       .  A
C726       C1135   1.513       .  S
C726       C1129   1.403       .  A
C727        F731   1.382       .  S
C727        F732   1.375       .  S
C730       F1142   1.382       .  S
C730        F735   1.381       .  S
C730        F736   1.383       .  S
F733       C1135   1.382       .  S
C737        H744   1.086       .  S
C737        C738   1.399       .  A
C737        C742   1.416       .  A
C738        C739   1.423       .  A
C739        C740   1.422       .  A
C740        H745   1.078       .  S
C740        C741   1.406       .  A
C741        C742   1.444       .  A
C742        C743   1.525       .  S
C743        F747   1.384       .  S
C743        F748   1.382       .  S
C743        F749   1.376       .  S
C746       C1147   1.513       .  S
C746        F750   1.380       .  S
C746        F751   1.383       .  S
C746        F752   1.384       .  S
C753       H1168   1.082       .  S
C753        C754   1.410       .  A
C753        C758   1.423       .  A
C754        C755   1.405       .  A
C755        C762   1.514       .  S
C755        C756   1.436       .  A
C756        H761   1.080       .  S
C756        C757   1.438       .  A
C757        C758   1.448       .  A
C758       C1167   1.526       .  S
C759        F763   1.381       .  S
C759        F765   1.364   1_455  S
C762        F766   1.384       .  S
C762        F767   1.383       .  S
C762        F768   1.384       .  S
F764       C1167   1.383       .  S
C769        H776   1.084       .  S
C769       C1178   1.408       .  A
C769        C774   1.410       .  A
C770        C771   1.412       .  A
C771        C778   1.523       .  S
C771        C772   1.411       .  A
C772        H777   1.059       .  S
C772        C773   1.405       .  A
C774        C775   1.519       .  S
C774       C1181   1.420       .  A
C775        F779   1.384       .  S
C775        F780   1.383       .  S
C775        F781   1.383       .  S
C778        F782   1.382       .  S
C778        F783   1.384       .  S
C778        F784   1.380       .  S
C785        H792   1.086       .  S
C785        C786   1.402       .  A
C785        C790   1.416       .  A
C786        C787   1.420       .  A
C787        C794   1.512       .  S
C787        C788   1.435       .  A
C788        H793   1.081       .  S
C788        C789   1.414       .  A
C789        C790   1.437       .  A
C790        C791   1.520       .  S
C791        F795   1.373       .  S
C791        F796   1.384       .  S
C791        F797   1.383       .  S
C794        F798   1.382       .  S
C794        F800   1.378       .  S
F799       C1202   1.382       .  S
C801        H808   1.082       .  S
C801        C802   1.407       .  A
C801        C806   1.430       .  A
C802        C803   1.423       .  A
C803        C810   1.509       .  S
C803        C804   1.443       .  A
C804        H809   1.082       .  S
C804        C805   1.421       .  A
C805        C806   1.429       .  A
C806        C807   1.516       .  S
C807        F811   1.380       .  S
C807        F812   1.377       .  S
C807        F813   1.382       .  S
C810        F814   1.383       .  S
C810       F1223   1.379       .  S
C810       F1224   1.378       .  S
C817        N818   1.370       .  A
C817        N822   1.391       .  A
C817       C1210   1.535       .  S
N818       C1227   1.364       .  A
C819        N820   1.352       .  A
C819       C1181   1.504       .  S
N820        C821   1.356       .  A
C821       C1194   1.531       .  S
N822       C1229   1.387       .  A
C823       N1232   1.382       .  A
C823        N828   1.355       .  A
C823       C1162   1.495       .  S
N824        C825   1.399       .  A
C825        N826   1.349       .  A
C825       C1146   1.532       .  S
N826        C827   1.343       .  A
N828       C1235   1.343       .  A
C829        N830   1.346       .  A
C829       C1098   1.507       .  S
N830        C831   1.343       .  A
C831       C1085   1.506       .  S
N832       C1239   1.361       .  A
N832        C833   1.369       .  A
C833        N834   1.393       .  A
C833       C1114   1.541       .  S
N834       C1237   1.388       .  A
C835        N836   1.353       .  A
C835        N840   1.383       .  A
C835       C1069   1.506       .  S
N836       C1245   1.352       .  A
C837        N838   1.348       .  A
N838        C839   1.349       .  A
C839       C1050   1.508       .  S
N840       C1247   1.383       .  A
C841       N1250   1.384       .  A
C841        N846   1.364       .  A
C841       C1018   1.526       .  S
N842        C843   1.396       .  A
C843        N844   1.345       .  A
C843       C1005   1.535       .  S
N844        C845   1.340       .  A
C845        C989   1.503       .  S
N846       C1253   1.361       .  A
C847        N852   1.348       .  A
C847        C954   1.531       .  S
N848       C1255   1.398       .  A
N848        C849   1.397       .  A
C849        N850   1.349       .  A
C849        C973   1.526       .  S
N850        C851   1.339       .  A
C851       N1260   1.343       .  A
C851        C938   1.452       .  S
O853       Mg855   2.097   1_545  S
O853      Mg1269   2.123   1_655  S
O853        C888   1.232   1_655  S
C854        O867   1.233       .  S
C854        O891   1.269       .  A
C854        H893   1.074       .  S
Mg855      O1292   2.145       .  S
Mg855      O1307   2.243   1_565  S
Mg855       O895   2.170       .  S
Mg855       O866   2.290       .  S
O856      Mg1306   2.137   1_545  S
O856       Mg881   2.136       .  S
O856        C877   1.234       .  S
O857        C888   1.266       .  A
O857       Mg881   2.291       .  S
C858        C986   1.489       .  S
C858        O860   1.272       .  A
C858        O872   1.270       .  A
O859        C887   1.277   1_545  A
O859       Mg861   2.322   1_655  S
O860       Mg892   2.299       .  S
Mg861       O867   2.154       .  S
Mg861       O875   2.291   1_455  S
C862       C1034   1.461       .  S
C862        O900   1.264       .  A
C862        O868   1.273       .  A
O863        C870   1.260       .  A
O863      Mg1269   2.227       .  S
H864        C877   1.081       .  S
C865        O879   1.238       .  S
C865        O880   1.275   1_455  A
C865        H890   1.081       .  S
O866        C889   1.267       .  A
O868      Mg1306   2.312       .  S
C869       C1082   1.497       .  S
C869        O882   1.268       .  A
C869        O874   1.272       .  A
C870       C1133   1.453       .  S
C870        O897   1.268       .  A
Mg871       O878   2.107   1_455  S
Mg871      O1287   2.153       .  S
Mg871      O1280   2.284   1_455  S
Mg871       O873   2.296       .  S
Mg871       O900   2.206       .  S
O873        C877   1.269   1_565  A
O875        C894   1.264       .  A
O876        C896   1.274       .  A
O876      Mg1300   2.295       .  S
O878      Mg1300   2.122       .  S
O878        C889   1.233       .  S
O879       Mg898   2.150       .  S
O880       Mg892   2.321       .  S
Mg881      O1275   2.158       .  S
Mg881      O1282   2.292       .  S
Mg881       O897   2.235       .  S
O882       Mg898   2.229   1_545  S
H883        C888   1.081       .  S
O884       Mg892   2.145       .  S
O884        C887   1.238       .  S
H885        C887   1.080       .  S
H886        C889   1.080       .  S
O891       Mg898   2.297   1_545  S
C894       C1178   1.493       .  S
C894        O899   1.264       .  A
O895        C896   1.259       .  A
C896        C941   1.461       .  S
C901        C902   1.527       .  S
C901        C907   1.531       .  S
C901        C905   1.564       .  S
C901       C1165   1.590       .  S
C902        H909   1.086       .  S
C902        C903   1.352       .  D
C903        C904   1.593   1_455  S
C903       C1053   1.542       .  S
C904        C908   1.578       .  S
C904        C906   1.595       .  S
C904        H910   1.108       .  S
C905        H911   1.077       .  S
C905        C906   1.391   1_455  D
C906       C1021   1.562       .  S
C907        H912   1.084       .  S
C907        C908   1.364   1_455  D
C908       C1197   1.540       .  S
C913        C914   1.527       .  S
C913        C919   1.552       .  S
C913        C917   1.585       .  S
C913        C957   1.618       .  S
C914        H921   1.085       .  S
C914        C915   1.354       .  D
C915        C916   1.578       .  S
C915       C1066   1.518       .  S
C916        C920   1.564       .  S
C916        C918   1.556   1_565  S
C916        H922   1.099   1_565  S
C917        H923   1.073       .  S
C917        C918   1.397   1_565  D
C918       C1101   1.557       .  S
C919        H924   1.081       .  S
C919        C920   1.385       .  D
C920       C1213   1.556   1_565  S
C925        C926   1.516       .  S
C925        C931   1.567       .  S
C925        C929   1.542       .  S
C925       C1149   1.592       .  S
C926        H933   1.079       .  S
C926        C927   1.349       .  D
C927        C928   1.610       .  S
C927        C970   1.554       .  S
C928        C932   1.584       .  S
C928        C930   1.587       .  S
C928        H934   1.096       .  S
C929        H935   1.082       .  S
C929        C930   1.374       .  D
C930       C1002   1.553       .  S
C931        H936   1.080       .  S
C931        C932   1.396       .  D
C932       C1117   1.583       .  S
C937        H944   1.084       .  S
C937        C938   1.395       .  A
C937        C942   1.393       .  A
C938        C939   1.411       .  A
C939       C1354   1.515       .  S
C939        C940   1.397       .  A
C940        H945   1.083       .  S
C940        C941   1.401       .  A
C941        C942   1.422       .  A
C942        C943   1.522       .  S
C943        F947   1.379       .  S
C943        F948   1.384       .  S
C943       F1357   1.379       .  S
C946        F951   1.381       .  S
C946        F952   1.386       .  S
F950       C1354   1.381       .  S
C953        H960   1.083       .  S
C953        C954   1.410       .  A
C953        C958   1.431       .  A
C954        C955   1.418       .  A
C955        C962   1.517       .  S
C955        C956   1.436       .  A
C956        H961   1.079       .  S
C956        C957   1.434       .  A
C957        C958   1.437       .  A
C958        C959   1.506       .  S
C959        F963   1.365       .  S
C959        F964   1.385       .  S
C959        F965   1.374       .  S
C962        F966   1.383       .  S
C962        F967   1.383       .  S
C962        F968   1.385       .  S
C969        H976   1.078       .  S
C969        C970   1.429       .  A
C969        C974   1.439       .  A
C970        C971   1.426       .  A
C971        C978   1.501       .  S
C971        C972   1.416       .  A
C972        H977   1.086       .  S
C972        C973   1.408       .  A
C973        C974   1.418       .  A
C974       C1383   1.512       .  S
C975        F979   1.379       .  S
C975        F981   1.378       .  S
C978        F982   1.382       .  S
C978        F983   1.371       .  S
C978        F984   1.384       .  S
F980       C1383   1.379       .  S
C985        H992   1.083       .  S
C985       C1394   1.404       .  A
C985        C990   1.407       .  A
C986        C987   1.413       .  A
C987        C994   1.519       .  S
C987        C988   1.411       .  A
C988        H993   1.083       .  S
C988        C989   1.416       .  A
C990        C991   1.517       .  S
C990       C1397   1.422       .  A
C991        F995   1.385       .  S
C991        F996   1.383       .  S
C991        F997   1.378       .  S
C994        F998   1.383       .  S
C994        F999   1.383       .  S
C994       F1000   1.385       .  S
C1001      H1008   1.082       .  S
C1001      C1002   1.425       .  A
C1001      C1006   1.441       .  A
C1002      C1003   1.424       .  A
C1003      C1010   1.506       .  S
C1003      C1004   1.417       .  A
C1004      C1005   1.412       .  A
C1005      C1006   1.420       .  A
C1006      C1007   1.511       .  S
C1007      F1011   1.385       .  S
C1007      F1012   1.382       .  S
C1007      F1013   1.383       .  S
H1009      C1412   1.085       .  S
C1010      F1014   1.382       .  S
C1010      F1015   1.378       .  S
F1016      C1418   1.376       .  S
C1017      H1024   1.083       .  S
C1017      C1018   1.407       .  A
C1017      C1022   1.427       .  A
C1018      C1019   1.416       .  A
C1019      C1434   1.514       .  S
C1019      C1020   1.432       .  A
C1020      H1025   1.068       .  S
C1020      C1021   1.418       .  A
C1021      C1022   1.427       .  A
C1022      C1023   1.497       .  S
C1023      F1027   1.385       .  S
C1023      F1028   1.379       .  S
C1023      F1029   1.383   1_655  S
C1026      F1030   1.381       .  S
C1026      F1031   1.383       .  S
C1026      F1032   1.384       .  S
C1033      H1040   1.085       .  S
C1033      C1038   1.392       .  A
C1034      C1441   1.399       .  A
C1034      C1035   1.412       .  A
C1035      C1042   1.519       .  S
C1035      C1036   1.404       .  A
C1036      H1041   1.083       .  S
C1036      C1037   1.405       .  A
C1037      C1245   1.471       .  S
C1037      C1446   1.416       .  A
C1038      C1039   1.512       .  S
C1039      F1043   1.381       .  S
C1039      F1044   1.383       .  S
C1039      F1045   1.381       .  S
C1042      F1046   1.381   1_565  S
C1042      F1047   1.383       .  S
C1042      F1048   1.385       .  S
C1049      H1056   1.085       .  S
C1049      C1050   1.394       .  A
C1049      C1054   1.419       .  A
C1050      C1051   1.428       .  A
C1051      C1058   1.519       .  S
C1051      C1052   1.420       .  A
C1052      H1057   1.065       .  S
C1052      C1053   1.400       .  A
C1053      C1054   1.438       .  A
C1054      C1055   1.505       .  S
C1055      F1059   1.373       .  S
C1055      F1060   1.375       .  S
C1055      F1061   1.382       .  S
C1058      F1063   1.383       .  S
C1058      F1064   1.377       .  S
F1062      C1466   1.378       .  S
C1065      H1072   1.082       .  S
C1065      C1066   1.416       .  A
C1065      C1070   1.420       .  A
C1066      C1067   1.418       .  A
C1067      C1074   1.515       .  S
C1067      C1068   1.419       .  A
C1068      H1073   1.082       .  S
C1068      C1069   1.411       .  A
C1069      C1070   1.415       .  A
C1070      C1071   1.516       .  S
C1071      F1075   1.383       .  S
C1071      F1076   1.383       .  S
C1071      F1485   1.384       .  S
C1074      F1078   1.383       .  S
C1074      F1079   1.377       .  S
C1074      F1080   1.383       .  S
C1081      H1088   1.083       .  S
C1081      C1082   1.404       .  A
C1081      C1086   1.406       .  A
C1083      C1090   1.515       .  S
C1083      C1490   1.422       .  A
C1083      C1084   1.414       .  A
C1084      H1089   1.084       .  S
C1084      C1493   1.409       .  A
C1085      C1086   1.433       .  A
C1086      C1087   1.527       .  S
C1087      F1091   1.385       .  S
C1087      F1092   1.382       .  S
C1087      F1093   1.381       .  S
C1090      F1094   1.383       .  S
C1090      F1095   1.383       .  S
C1090      F1096   1.384       .  S
C1097      H1104   1.083       .  S
C1097      C1098   1.394       .  A
C1097      C1102   1.422       .  A
C1098      C1099   1.420       .  A
C1099      C1100   1.430       .  A
C1100      H1105   1.082   1_545  S
C1100      C1101   1.417       .  A
C1101      C1102   1.446       .  A
C1102      C1103   1.513       .  S
C1103      F1107   1.386       .  S
C1103      F1108   1.365       .  S
C1103      F1109   1.377       .  S
C1106      C1507   1.508       .  S
C1106      F1110   1.380       .  S
C1106      F1111   1.381       .  S
C1106      F1112   1.383       .  S
C1113      H1528   1.082       .  S
C1113      C1114   1.407       .  A
C1113      C1118   1.441       .  A
C1114      C1115   1.426       .  A
C1115      C1122   1.520       .  S
C1115      C1116   1.423       .  A
C1116      H1121   1.077       .  S
C1116      C1117   1.419       .  A
C1117      C1118   1.449       .  A
C1118      C1119   1.510       .  S
C1119      F1531   1.385       .  S
C1119      F1124   1.371       .  S
C1119      F1125   1.367       .  S
C1122      F1126   1.382       .  S
C1122      F1127   1.382       .  S
C1122      F1128   1.383       .  S
C1129      H1136   1.084       .  S
C1130      C1235   1.448       .  S
C1130      C1537   1.402       .  A
C1130      C1131   1.408       .  A
C1131      C1138   1.518       .  S
C1131      C1132   1.384       .  A
C1132      H1137   1.086       .  S
C1132      C1133   1.401       .  A
C1133      C1134   1.420       .  A
C1134      C1543   1.523       .  S
C1134      C1537   1.400       .  A
C1135      F1139   1.384       .  S
C1135      F1140   1.375       .  S
C1138      F1550   1.383       .  S
C1138      F1143   1.384       .  S
C1138      F1144   1.384       .  S
F1141      C1543   1.378       .  S
C1145      H1152   1.084       .  S
C1145      C1146   1.403       .  A
C1145      C1150   1.434       .  A
C1146      C1147   1.432       .  A
C1147      C1148   1.420       .  A
C1148      H1153   1.079       .  S
C1148      C1149   1.409       .  A
C1149      C1150   1.450       .  A
C1150      C1151   1.520       .  S
C1151      F1155   1.367       .  S
C1151      F1156   1.379       .  S
C1151      F1157   1.383       .  S
C1154      C1555   1.510       .  S
C1154      F1158   1.383       .  S
C1154      F1159   1.382       .  S
C1154      F1160   1.365       .  S
C1161      H1576   1.083       .  S
C1161      C1162   1.402       .  A
C1161      C1166   1.413       .  A
C1162      C1163   1.405       .  A
C1163      C1170   1.520       .  S
C1163      C1164   1.418       .  A
C1164      H1169   1.071       .  S
C1164      C1165   1.435       .  A
C1165      C1166   1.427       .  A
C1166      C1575   1.499       .  S
C1167      F1171   1.387       .  S
C1167      F1173   1.380   1_455  S
C1170      F1174   1.384       .  S
C1170      F1175   1.383       .  S
C1170      F1176   1.382       .  S
F1172      C1575   1.374   1_655  S
C1177      H1184   1.082       .  S
C1177      C1586   1.407       .  A
C1177      C1182   1.406       .  A
C1178      C1179   1.415       .  A
C1179      C1186   1.524       .  S
C1179      C1180   1.415       .  A
C1180      H1185   1.061       .  S
C1180      C1181   1.406       .  A
C1182      C1183   1.519       .  S
C1182      C1589   1.416       .  A
C1183      F1187   1.384       .  S
C1183      F1188   1.383       .  S
C1183      F1189   1.384       .  S
C1186      F1190   1.381       .  S
C1186      F1191   1.383       .  S
C1186      F1192   1.379   1_545  S
C1193      H1200   1.082       .  S
C1193      C1194   1.408       .  A
C1193      C1198   1.422       .  A
C1194      C1195   1.424       .  A
C1195      C1202   1.512       .  S
C1195      C1196   1.437       .  A
C1196      H1201   1.083       .  S
C1196      C1197   1.417       .  A
C1197      C1198   1.434       .  A
C1198      C1199   1.527   1_655  S
C1199      F1203   1.375       .  S
C1199      F1204   1.375       .  S
C1199      F1205   1.376       .  S
C1202      F1206   1.383       .  S
C1202      F1208   1.384       .  S
F1207      C1610   1.383       .  S
C1209      H1216   1.083       .  S
C1209      C1210   1.406       .  A
C1209      C1214   1.427       .  A
C1210      C1211   1.421       .  A
C1211      C1218   1.510       .  S
C1211      C1212   1.438       .  A
C1212      H1217   1.080       .  S
C1212      C1213   1.421       .  A
C1213      C1214   1.426       .  A
C1214      C1215   1.516       .  S
C1215      F1219   1.376       .  S
C1215      F1220   1.379       .  S
C1215      F1221   1.380       .  S
C1218      F1222   1.383       .  S
C1218      F1631   1.378       .  S
C1218      F1632   1.381       .  S
C1225      N1226   1.378       .  A
C1225      N1230   1.395       .  A
C1225      C1618   1.541       .  S
C1227      N1228   1.350       .  A
C1227      C1589   1.491       .  S
N1228      C1229   1.353       .  A
C1229      C1602   1.523       .  S
C1231      N1236   1.354       .  A
C1231      C1570   1.543       .  S
N1232      C1233   1.378       .  A
C1233      N1234   1.338       .  A
C1233      C1554   1.480       .  S
N1234      C1235   1.334       .  A
C1237      N1238   1.341       .  A
C1237      C1506   1.518       .  S
N1238      C1239   1.341       .  A
C1239      C1493   1.499       .  S
N1240      C1241   1.368       .  A
C1241      N1242   1.390       .  A
C1241      C1522   1.538       .  S
C1243      N1244   1.349       .  A
C1243      N1248   1.389       .  A
C1243      C1477   1.510       .  S
C1245      N1246   1.354       .  A
N1246      C1247   1.355       .  A
C1247      C1458   1.513       .  S
C1249      N1254   1.368       .  A
C1249      C1426   1.532       .  S
N1250      C1251   1.381       .  A
C1251      N1252   1.353       .  A
C1251      C1413   1.507       .  S
N1252      C1253   1.350       .  A
C1253      C1397   1.498       .  S
C1255      N1260   1.348       .  A
C1255      C1362   1.519       .  S
N1256      C1257   1.399       .  A
C1257      N1258   1.359       .  A
C1257      C1381   1.555       .  S
N1258      C1259   1.345       .  A
C1259      C1346   1.480       .  S
O1261     Mg1263   2.090   1_545  S
O1261      C1296   1.231   1_655  S
C1262      O1275   1.232       .  S
C1262      O1299   1.271       .  A
C1262      H1301   1.075       .  S
Mg1263     O1303   2.196       .  S
Mg1263     O1274   2.311       .  S
O1264     Mg1289   2.123       .  S
O1264      C1285   1.230       .  S
O1265      C1296   1.264       .  A
O1265     Mg1289   2.281       .  S
C1266      C1394   1.482       .  S
C1266      O1268   1.272       .  A
C1266      O1280   1.270       .  A
O1267      C1295   1.278   1_545  A
O1267     Mg1269   2.335   1_655  S
O1268     Mg1300   2.287       .  S
Mg1269     O1275   2.161       .  S
Mg1269     O1283   2.282   1_455  S
C1270      C1442   1.453       .  S
C1270      O1308   1.265       .  A
C1270      O1276   1.266       .  A
O1271      C1278   1.262       .  A
H1272      C1285   1.079       .  S
C1273      O1287   1.236       .  S
C1273      O1288   1.272   1_455  A
C1273      H1298   1.081       .  S
O1274      C1297   1.271       .  A
C1277      C1490   1.500       .  S
C1277      O1290   1.272       .  A
C1277      O1282   1.271       .  A
C1278      C1541   1.446       .  S
C1278      O1305   1.266       .  A
Mg1279     O1286   2.115   1_455  S
Mg1279     O1281   2.294       .  S
Mg1279     O1308   2.211       .  S
O1281      C1285   1.266   1_565  A
O1283      C1302   1.264       .  A
O1284      C1304   1.274       .  A
O1286      C1297   1.235       .  S
O1287     Mg1306   2.144       .  S
O1288     Mg1300   2.311       .  S
Mg1289     O1305   2.215       .  S
O1290     Mg1306   2.233   1_545  S
H1291      C1296   1.081   1_655  S
O1292     Mg1300   2.158       .  S
O1292      C1295   1.240       .  S
H1293      C1295   1.080       .  S
H1294      C1297   1.077       .  S
O1299     Mg1306   2.308   1_545  S
C1302      C1586   1.489       .  S
C1302      O1307   1.262       .  A
O1303      C1304   1.257       .  A
C1304      C1349   1.474       .  S
C1309      C1310   1.508       .  S
C1309      C1315   1.558       .  S
C1309      C1313   1.566       .  S
C1309      C1573   1.597       .  S
C1310      H1317   1.082       .  S
C1310      C1311   1.351       .  D
C1311      C1312   1.609   1_455  S
C1311      C1461   1.548       .  S
C1312      C1316   1.583       .  S
C1312      C1314   1.592       .  S
C1312      H1318   1.105       .  S
C1313      H1319   1.086       .  S
C1313      C1314   1.393   1_455  D
C1314      C1429   1.567       .  S
C1315      H1320   1.086       .  S
C1315      C1316   1.375   1_455  D
C1316      C1605   1.566       .  S
C1321      C1322   1.516       .  S
C1321      C1327   1.544       .  S
C1321      C1325   1.583       .  S
C1321      C1365   1.605       .  S
C1322      H1329   1.088       .  S
C1322      C1323   1.347       .  D
C1323      C1324   1.595   1_565  S
C1323      C1474   1.524       .  S
C1324      C1328   1.572       .  S
C1324      C1326   1.564       .  S
C1324      H1330   1.103       .  S
C1325      H1331   1.073       .  S
C1325      C1326   1.398   1_565  D
C1326      C1509   1.556       .  S
C1327      H1332   1.081       .  S
C1327      C1328   1.381   1_565  D
C1328      C1621   1.561       .  S
C1333      C1334   1.517       .  S
C1333      C1339   1.552       .  S
C1333      C1337   1.557       .  S
C1333      C1557   1.567       .  S
C1334      H1341   1.086       .  S
C1334      C1335   1.349       .  D
C1335      C1336   1.600       .  S
C1335      C1378   1.557       .  S
C1336      C1340   1.568       .  S
C1336      C1338   1.563       .  S
C1336      H1342   1.100       .  S
C1337      H1343   1.084       .  S
C1337      C1338   1.384       .  D
C1338      C1410   1.519       .  S
C1339      H1344   1.085       .  S
C1339      C1340   1.375       .  D
C1340      C1525   1.542       .  S
C1345      H1352   1.083       .  S
C1345      C1346   1.401       .  A
C1345      C1350   1.398   1_556  A
C1346      C1347   1.418       .  A
C1347      C1348   1.395   1_556  A
C1348      H1353   1.083       .  S
C1348      C1349   1.397       .  A
C1349      C1350   1.425       .  A
C1350      C1351   1.520       .  S
C1351      F1355   1.379       .  S
C1351      F1356   1.385   1_554  S
C1354      F1359   1.383       .  S
C1354      F1360   1.380       .  S
C1361      H1368   1.083       .  S
C1361      C1362   1.410       .  A
C1361      C1366   1.436       .  A
C1362      C1363   1.419       .  A
C1363      C1370   1.518       .  S
C1363      C1364   1.423       .  A
C1364      H1369   1.081       .  S
C1364      C1365   1.426       .  A
C1365      C1366   1.433       .  A
C1366      C1367   1.502       .  S
C1367      F1371   1.374       .  S
C1367      F1372   1.384       .  S
C1367      F1373   1.380       .  S
C1370      F1374   1.383       .  S
C1370      F1375   1.383       .  S
C1370      F1376   1.385       .  S
C1377      H1384   1.079       .  S
C1377      C1378   1.435       .  A
C1377      C1382   1.434       .  A
C1378      C1379   1.412       .  A
C1379      C1386   1.515       .  S
C1379      C1380   1.422       .  A
C1380      H1385   1.067       .  S
C1380      C1381   1.429       .  A
C1381      C1382   1.420       .  A
C1383      F1387   1.383       .  S
C1383      F1389   1.383       .  S
C1386      F1390   1.370       .  S
C1386      F1391   1.378       .  S
C1386      F1392   1.381       .  S
C1393      H1400   1.083       .  S
C1393      C1398   1.410       .  A
C1394      C1395   1.411       .  A
C1395      C1402   1.516       .  S
C1395      C1396   1.410       .  A
C1396      H1401   1.083       .  S
C1396      C1397   1.414       .  A
C1398      C1399   1.513       .  S
C1399      F1403   1.384       .  S
C1399      F1404   1.383   1_554  S
C1399      F1405   1.383       .  S
C1402      F1406   1.383       .  S
C1402      F1407   1.384       .  S
C1402      F1408   1.383       .  S
C1409      H1416   1.081       .  S
C1409      C1410   1.413       .  A
C1409      C1414   1.426       .  A
C1410      C1411   1.425       .  A
C1411      C1418   1.515       .  S
C1411      C1412   1.415       .  A
C1412      C1413   1.405       .  A
C1413      C1414   1.419       .  A
C1414      C1415   1.514       .  S
C1415      F1419   1.385       .  S
C1415      F1420   1.383       .  S
C1415      F1421   1.382       .  S
C1418      F1422   1.383       .  S
C1418      F1423   1.380       .  S
C1425      H1432   1.083       .  S
C1425      C1426   1.411       .  A
C1425      C1430   1.437       .  A
C1426      C1427   1.414       .  A
C1427      C1428   1.429       .  A
C1428      H1433   1.079       .  S
C1428      C1429   1.418       .  A
C1429      C1430   1.434       .  A
C1430      C1431   1.508       .  S
C1431      F1435   1.384       .  S
C1431      F1436   1.380       .  S
C1431      F1437   1.382   1_655  S
C1434      F1438   1.381       .  S
C1434      F1439   1.384       .  S
C1434      F1440   1.378       .  S
C1441      H1448   1.085       .  S
C1441      C1446   1.399       .  A
C1442      C1443   1.411       .  A
C1443      C1450   1.520       .  S
C1443      C1444   1.400       .  A
C1444      H1449   1.083   1_554  S
C1444      C1445   1.408       .  A
C1446      C1447   1.517       .  S
C1447      F1451   1.382       .  S
C1447      F1452   1.383       .  S
C1447      F1453   1.383       .  S
C1450      F1454   1.383       .  S
C1450      F1455   1.383       .  S
C1450      F1456   1.385   1_554  S
C1457      H1464   1.085       .  S
C1457      C1458   1.389       .  A
C1457      C1462   1.414       .  A
C1458      C1459   1.429       .  A
C1459      C1466   1.511       .  S
C1459      C1460   1.424       .  A
C1460      H1465   1.076       .  S
C1460      C1461   1.403       .  A
C1461      C1462   1.452       .  A
C1462      C1463   1.518       .  S
C1463      F1467   1.383       .  S
C1463      F1468   1.371       .  S
C1463      F1469   1.383       .  S
C1466      F1471   1.382       .  S
C1466      F1472   1.383       .  S
C1473      H1480   1.079       .  S
C1473      C1474   1.417       .  A
C1473      C1478   1.424       .  A
C1474      C1475   1.428       .  A
C1475      C1482   1.515       .  S
C1475      C1476   1.423       .  A
C1476      H1481   1.083       .  S
C1476      C1477   1.410       .  A
C1477      C1478   1.414       .  A
C1478      C1479   1.514       .  S
C1479      F1483   1.381       .  S
C1479      F1484   1.384       .  S
C1482      F1486   1.381       .  S
C1482      F1487   1.379       .  S
C1482      F1488   1.383       .  S
C1489      H1496   1.082       .  S
C1489      C1490   1.403       .  A
C1489      C1494   1.400       .  A
C1491      C1498   1.518       .  S
C1491      C1492   1.412       .  A
C1492      H1497   1.082       .  S
C1493      C1494   1.431       .  A
C1494      C1495   1.528       .  S
C1495      F1499   1.384       .  S
C1495      F1500   1.379       .  S
C1495      F1501   1.383       .  S
C1498      F1502   1.382       .  S
C1498      F1503   1.380       .  S
C1498      F1504   1.385       .  S
C1505      H1512   1.083       .  S
C1505      C1506   1.403       .  A
C1505      C1510   1.428       .  A
C1506      C1507   1.427       .  A
C1507      C1508   1.426       .  A
C1508      H1513   1.084       .  S
C1508      C1509   1.412       .  A
C1509      C1510   1.442       .  A
C1510      C1511   1.511       .  S
C1511      F1515   1.385       .  S
C1511      F1516   1.370       .  S
C1511      F1517   1.377       .  S
C1514      F1518   1.381       .  S
C1514      F1519   1.383       .  S
C1514      F1520   1.377       .  S
C1521      C1522   1.412       .  A
C1521      C1526   1.424       .  A
C1522      C1523   1.424       .  A
C1523      C1530   1.512       .  S
C1523      C1524   1.437       .  A
C1524      H1529   1.083       .  S
C1524      C1525   1.418       .  A
C1525      C1526   1.416       .  A
C1526      C1527   1.504       .  S
C1527      F1532   1.380       .  S
C1527      F1533   1.381       .  S
C1530      F1534   1.380       .  S
C1530      F1535   1.383       .  S
C1530      F1536   1.383       .  S
C1537      H1544   1.083       .  S
C1538      C1539   1.408       .  A
C1539      C1546   1.512   1_554  S
C1539      C1540   1.382       .  A
C1540      H1545   1.087       .  S
C1540      C1541   1.393       .  A
C1541      C1542   1.412       .  A
C1543      F1547   1.385       .  S
C1543      F1548   1.378       .  S
C1546      F1551   1.380       .  S
C1546      F1552   1.381       .  S
C1553      H1560   1.086       .  S
C1553      C1554   1.394       .  A
C1553      C1558   1.408       .  A
C1554      C1555   1.412       .  A
C1555      C1556   1.427       .  A
C1556      H1561   1.079       .  S
C1556      C1557   1.415       .  A
C1557      C1558   1.445       .  A
C1558      C1559   1.524       .  S
C1559      F1563   1.383       .  S
C1559      F1564   1.383       .  S
C1559      F1565   1.373       .  S
C1562      F1566   1.376       .  S
C1562      F1567   1.383       .  S
C1562      F1568   1.384       .  S
C1569      C1570   1.417       .  A
C1569      C1574   1.418       .  A
C1570      C1571   1.415       .  A
C1571      C1578   1.515       .  S
C1571      C1572   1.439       .  A
C1572      H1577   1.071       .  S
C1572      C1573   1.441       .  A
C1573      C1574   1.414       .  A
C1575      F1579   1.386       .  S
C1575      F1581   1.367       .  S
C1578      F1582   1.383       .  S
C1578      F1583   1.383       .  S
C1578      F1584   1.384       .  S
C1585      H1592   1.084       .  S
C1585      C1590   1.410       .  A
C1586      C1587   1.415       .  A
C1587      C1594   1.522       .  S
C1587      C1588   1.414       .  A
C1588      H1593   1.066       .  S
C1588      C1589   1.405       .  A
C1590      C1591   1.512   1_554  S
C1591      F1595   1.382       .  S
C1591      F1596   1.381       .  S
C1591      F1597   1.383       .  S
C1594      F1598   1.381       .  S
C1594      F1599   1.383       .  S
C1594      F1600   1.380   1_545  S
C1601      H1608   1.086       .  S
C1601      C1602   1.401       .  A
C1601      C1606   1.416       .  A
C1602      C1603   1.419       .  A
C1603      C1610   1.517       .  S
C1603      C1604   1.443       .  A
C1604      H1609   1.073       .  S
C1604      C1605   1.422       .  A
C1605      C1606   1.436       .  A
C1606      C1607   1.506       .  S
C1607      F1611   1.385       .  S
C1607      F1612   1.364       .  S
C1607      F1613   1.383       .  S
C1610      F1614   1.383       .  S
C1610      F1616   1.379       .  S
C1617      H1624   1.083       .  S
C1617      C1618   1.405       .  A
C1617      C1622   1.424       .  A
C1618      C1619   1.427       .  A
C1619      C1626   1.513       .  S
C1619      C1620   1.443       .  A
C1620      H1625   1.081       .  S
C1620      C1621   1.420       .  A
C1621      C1622   1.431       .  A
C1622      C1623   1.517       .  S
C1623      F1627   1.382       .  S
C1623      F1628   1.378       .  S
C1623      F1629   1.380       .  S
C1626      F1630   1.382       .  S
